command: 
 ./cs_solver

***************************************************************

                                  (R)
                      Code_Saturne

                      Version 5.0.7-patch


  Copyright (C) 1998-2018 EDF S.A., France

  revision svn11029-gitbf5c5c20afeb76f7da153d2f2690332602a204fd
  build Sun 18 Feb 2018 08:06:01 AM CET
  MPI version 3.0 (Open MPI 1.8.5)


  The Code_Saturne CFD tool  is free software;
  you can redistribute it and/or modify it under the terms
  of the GNU General Public License as published by the
  Free Software Foundation; either version 2 of the License,
  or (at your option) any later version.

  The Code_Saturne CFD tool is distributed in the hope that
  it will be useful, but WITHOUT ANY WARRANTY; without even
  the implied warranty of MERCHANTABILITY or FITNESS FOR A
  PARTICULAR PURPOSE.  See the GNU General Public License
  for more details.

***************************************************************


Local case configuration:

  Date:                Tue 27 Mar 2018 02:00:55 AM CEST
  System:              Linux 3.0.42-0.7-default
  Machine:             razor25
  Processor:           model name	: Intel(R) Xeon(R) CPU E5-2680 v2 @ 2.80GHz
  Memory:              129041 MB
  User:                flageul (Cedric Flageul)
  Directory:           /home2/r4/flageul/FTAC/1020_Pr071/RESU/bigrun2
  MPI ranks:           180 (appnum attribute: 0)
  I/O read method:     collective MPI-IO (explicit offsets)
  I/O write method:    collective MPI-IO (explicit offsets)
  I/O rank step:        1

  External libraries for partitioning:
    PT-SCOTCH 6.0.4

 Reading metadata from file: "mesh_input"

===============================================================

                   CALCULATION PREPARATION
                   =======================


 ===========================================================



@
@@@@@@@@@@@@@@@@@@@@@@@@@@@@@@@@@@@@@@@@@@@@@@@@@@@@@@@@@@@@@
@
@ @@   WARNING :      WHEN READING INPUT DATA
@    =========
@   NON-STANDARD CHOICE WITH  TIME-SCHEME
@
@   ORDRE 2 EN TEMPS or the
@   THE VALUE RECOMMANDED FOR THE PARAMETER NSWRSM FOR
@        VARIABLEPressure         IS        10
@     NSWRSM IS NOW IMPOSED AS         5
@
@  computation will go on
@
@ Check the input data given through the User Interface
@   or in cs_user_parameters.f90.
@
@
@@@@@@@@@@@@@@@@@@@@@@@@@@@@@@@@@@@@@@@@@@@@@@@@@@@@@@@@@@@@@
@

@
@@@@@@@@@@@@@@@@@@@@@@@@@@@@@@@@@@@@@@@@@@@@@@@@@@@@@@@@@@@@@
@
@ @@   WARNING :      WHEN READING INPUT DATA
@    =========
@   NON-STANDARD CHOICE WITH  TIME-SCHEME
@
@   ORDRE 2 EN TEMPS or the
@   THE VALUE RECOMMANDED FOR THE PARAMETER NSWRSM FOR
@        VARIABLEPressure         IS        10
@     NSWRSM IS NOW IMPOSED AS         5
@
@  computation will go on
@
@ Check the input data given through the User Interface
@   or in cs_user_parameters.f90.
@
@
@@@@@@@@@@@@@@@@@@@@@@@@@@@@@@@@@@@@@@@@@@@@@@@@@@@@@@@@@@@@@
@

@
@@@@@@@@@@@@@@@@@@@@@@@@@@@@@@@@@@@@@@@@@@@@@@@@@@@@@@@@@@@@@
@
@ @@   WARNING :      WHEN READING INPUT DATA
@    =========
@   NON-STANDARD CHOICE WITH  TIME-SCHEME
@
@   ORDRE 2 EN TEMPS or the
@   THE VALUE RECOMMANDED FOR THE PARAMETER NSWRSM FOR
@        VARIABLEPressure         IS        10
@     NSWRSM IS NOW IMPOSED AS         5
@
@  computation will go on
@
@ Check the input data given through the User Interface
@   or in cs_user_parameters.f90.
@
@
@@@@@@@@@@@@@@@@@@@@@@@@@@@@@@@@@@@@@@@@@@@@@@@@@@@@@@@@@@@@@
@

@
@@@@@@@@@@@@@@@@@@@@@@@@@@@@@@@@@@@@@@@@@@@@@@@@@@@@@@@@@@@@@
@
@ @@   WARNING :      WHEN READING INPUT DATA
@    =========
@   NON-STANDARD CHOICE WITH  TIME-SCHEME
@
@   ORDRE 2 EN TEMPS or the
@   THE VALUE RECOMMANDED FOR THE PARAMETER NSWRSM FOR
@        VARIABLEPressure         IS        10
@     NSWRSM IS NOW IMPOSED AS         5
@
@  computation will go on
@
@ Check the input data given through the User Interface
@   or in cs_user_parameters.f90.
@
@
@@@@@@@@@@@@@@@@@@@@@@@@@@@@@@@@@@@@@@@@@@@@@@@@@@@@@@@@@@@@@
@

@
@@@@@@@@@@@@@@@@@@@@@@@@@@@@@@@@@@@@@@@@@@@@@@@@@@@@@@@@@@@@@
@
@ @@   WARNING :      WHEN READING INPUT DATA
@    =========
@   NON-STANDARD CHOICE WITH  TIME-SCHEME
@
@   ORDRE 2 EN TEMPS or the
@   THE VALUE RECOMMANDED FOR THE PARAMETER NSWRSM FOR
@        VARIABLEPressure         IS        10
@     NSWRSM IS NOW IMPOSED AS         5
@
@  computation will go on
@
@ Check the input data given through the User Interface
@   or in cs_user_parameters.f90.
@
@
@@@@@@@@@@@@@@@@@@@@@@@@@@@@@@@@@@@@@@@@@@@@@@@@@@@@@@@@@@@@@
@

@
@@@@@@@@@@@@@@@@@@@@@@@@@@@@@@@@@@@@@@@@@@@@@@@@@@@@@@@@@@@@@
@
@ @@   WARNING :      WHEN READING INPUT DATA
@    =========
@   CHOICE OF TIME-SCHEME
@
@     TIME-SCHEME FOR VELOCITY IS SECOND ORDER
@       (THETAV =   0.50E+00)
@     CERTAIN TERMS ARE HOWEVER FIRST ORDER IN TIME  WITH
@       THE FOLLOWING SETTINGS:
@
@ parameters       ISTMPF ISNO2T ISTO2T IROEXT IVIEXT ICPEXT
@ Values  entered      2      1      0      0      0      0
@
@  computation will go on.
@
@ Check the input data given through the User Interface
@   or in cs_user_parameters.f90.
@
@
@@@@@@@@@@@@@@@@@@@@@@@@@@@@@@@@@@@@@@@@@@@@@@@@@@@@@@@@@@@@@
@


Warning in LES, while reading convection scheme parameters for variable diric
-------
Parameter: var_cal_opt.isstpc (slope test) = 1
while its recommended value is equal to 0.

Warning in LES, while reading convection scheme parameters for variable neuma
-------
Parameter: var_cal_opt.isstpc (slope test) = 1
while its recommended value is equal to 0.

Warning in LES, while reading convection scheme parameters for variable 11
-------
Parameter: var_cal_opt.isstpc (slope test) = 1
while its recommended value is equal to 0.

Warning in LES, while reading convection scheme parameters for variable 12
-------
Parameter: var_cal_opt.isstpc (slope test) = 1
while its recommended value is equal to 0.

Warning in LES, while reading convection scheme parameters for variable 13
-------
Parameter: var_cal_opt.isstpc (slope test) = 1
while its recommended value is equal to 0.

 No error detected during the data verification
                          cs_user_parameters.f90 and others).


 ===========================================================

               CALCULATION PARAMETERS SUMMARY
               ==============================

 -----------------------------------------------------------


 ** DIMENSIONS
    ----------

 --- Physics
       NVAR   =              9 (Nb variables                )
       NSCAL  =              5 (Nb scalars                  )
       NSCAUS =              5 (Nb user scalars             )
       NSCAPP =              0 (Nb specific physics scalars )


 -----------------------------------------------------------


 ** VOF METHOD                              
    ----------------------------------------

       IVOFMT =             -1 ( -1: inactive                )
                               (  0: active                  )


 ** HOMOGENEOUS MIXTURE MODEL FOR CAVITATION
    ----------------------------------------

       ICAVIT =             -1 (-1: single phase flow       )
                               ( 0: no vap./cond. model     )
                               ( 1: Merkle's model        )


 -----------------------------------------------------------


 ** TIME STEPPING
    -------------

 --- Per-variable properties

------------------------------------
 Variable          ISTAT      CDTVAR
------------------------------------
 Velocity              1  0.1000E+01
 Pressure              0  0.1000E+01
 diric                 1  0.1000E+01
 neuma                 1  0.1000E+01
 11                    1  0.1000E+01
 12                    1  0.1000E+01
 13                    1  0.1000E+01
----------------------------

       ISTAT  =  0 ou  1       (1 for unsteady              )
       CDTVAR >  0             (time step multiplier        )

 --- Order of base time stepping scheme
       ISCHTP =              2 (1: order 1; 2: order 2      )
                                                             

 -----------------------------------------------------------


 ** STOKES
    ------

  -- Phase continue :

       ISTMPF =              2 (time scheme for flow
                               (0: explicit (THETFL = 0     )
                               (1: std scheme (Saturne 1.0  )
                               (2: 2nd-order (THETFL = 0.5  )
       THETFL =    0.50000E+00 (theta for mass flow         )
       IROEXT =              0 (density extrapolation
                               (0: explicit
                               (1: n+thetro with thetro=1/2
                               (2: n+thetro with thetro=1
       THETRO =    0.00000E+00 (theta for density
                               ((1+theta).new-theta.old
       IVIEXT =              0 (total viscosity extrapolation
                               (0: explicit
                               (1: n+thetvi with thetro=1/2
                               (2: n+thetvi with thetro=1
       THETVI =    0.00000E+00 (theta for total viscosity
                               ((1+theta).new-theta.old
       ICPEXT =              0 (specific heat extrapolation
                               (0: explicit
                               (1: n+thetcp with thetro=1/2
                               (2: n+thetcp with thetro=1
       THETCP =    0.00000E+00 (specific heat theta-scheme
                               ((1+theta).new-theta.old
       THETSN =    0.50000E+00 (Nav-Stokes S.T. theta scheme)
                               ((1+theta).new-theta.old
       THETST =    0.00000E+00 (Turbulence S.T. theta-scheme)
                               ((1+theta).new-theta.old
       EPSUP  =    0.10000E-04 (Velocity/pressure coupling
                                stop test                   )


 -----------------------------------------------------------


 ** BASE ITERATIVE SOLVERS
    ----------------------

------------------------------------
 Variable              EPSILO IDIRCL
------------------------------------
 Velocity          0.1000E-04      1
 Pressure          0.1000E-04      1
 diric             0.1000E-04      1
 neuma             0.1000E-04      1
 11                0.1000E-04      1
 12                0.1000E-04      1
 13                0.1000E-04      1
------------------------------------

       EPSILO =                (resolution precision)
       IDIRCL = 0 ou 1         (shift diagonal if
                                ISTAT=0 and no Dirichlet)


 -----------------------------------------------------------


 ** SCALARS
    -------

       ITBRRB =              0 (T or H reconstruction at bdy)

-------------------------------------------------------------
 Variable         Number ISCACP  ITURT     VISLS0      SIGMAS
-------------------------------------------------------------
 diric                 1      0      0  0.1994E-03  0.1000E+01
 neuma                 2      0      0  0.1994E-03  0.1000E+01
 11                    3      0      0  0.1994E-03  0.1000E+01
 12                    4      0      0  0.1994E-03  0.1000E+01
 13                    5      0      0  0.1994E-03  0.1000E+01
-------------------------------------------------------------

------------------------------------
 Variable         Number      RVARFL
------------------------------------
 diric                 1  0.8000E+00
 neuma                 2  0.8000E+00
 11                    3  0.8000E+00
 12                    4  0.8000E+00
 13                    5  0.8000E+00
-------------------------------------------

-------------------------------------------------------
 Variable         Number ICLVFL      SCAMIN      SCAMAX
-------------------------------------------------------
 diric                 1     -1 -0.1000E+13  0.1000E+13
 neuma                 2     -1 -0.1000E+13  0.1000E+13
 11                    3     -1 -0.1000E+13  0.1000E+13
 12                    4     -1 -0.1000E+13  0.1000E+13
 13                    5     -1 -0.1000E+13  0.1000E+13
-------------------------------------------------------

-------------------------------------------------------------

       For each scalar, the number indicates it's rank
         in the list of all scalars. User scalars are placed
         first, from 1 to NSCAUS. Specific physics scalars
         are placed at the end, from
         NSCAUS+1 to NSCAPP+NSCAUS=NSCAL.

       ISCACP = 0 or 1     2   (use Cp or not               )
       VISLS0 = >0             (Reference viscosity         )
       SIGMAS = >0             (Schmidt                     )
       RVARFL = >0             (Rf, cf variance dissipation )
       ICLVFL = 0, 1 or 2      (Variance clipping mode      )
       SCAMIN =                (Min authorized value        )
       SCAMAX =                (Max authorized value        )
        For variances, SCAMIN is ignored and SCAMAX is used
          only if ICLVFL = 2

------------------------------------------------------
   Scalar        THETSS    IVSEXT      THETVS
------------------------------------------------------
          1  0.5000E+00         0  0.0000E+00
          2  0.5000E+00         0  0.0000E+00
          3  0.5000E+00         0  0.0000E+00
          4  0.5000E+00         0  0.0000E+00
          5  0.5000E+00         0  0.0000E+00
------------------------------------------------------

       THETSS =                (theta for source terms      )
                               ((1+theta).new-theta.old     )
       IVSEXT =                (extrap. total viscosity     )
                               (0: explicit                 )
                               (1: n+thetvs with thetvs=1/2 )
                               (2: n+thetvs with thetvs=1   )
       THETVS =                (theta for scalar diffusivity
                               ((1+theta).new-theta.old     )


 -----------------------------------------------------------


 ** CALCULATION MANAGEMENT
    ----------------------

 --- Restarted calculation
       ISUITE =              1 (1: restarted calculation    )
       ILEAUX =              1 (1: read  restart/auxiliary  )
       IECAUX =              1 (1: write checkpoint/auxiliary)


 --- Calculation time
     The numbering of time steps and the measure of simulated
       physical time are absolute values, and not values
       relative to the current calculation.

       INPDT0 =              0 (1: 0 time step calcuation   )
       NTMABS =        2500000 (Final time step required    )

 --- CPU time margin
       TMARUS =   -0.10000E+01 (CPU time margin before stop )


 -----------------------------------------------------------


 ** INPUT-OUTPUT
    ------------

 --- Restart file
       NTSUIT =              0 (Checkpoint frequency )

 --- Probe history files
       NTHIST =              1 (Output frequency     )
       FRHIST =     -.10000E+01 (Output frequency (s) )
         --           --                --

 --- Log files
       NTLIST =           1000 (Output frequency     )

       Number Name                IWARNI verbosity level
                                      (-999: not applicable)

 Velocity                       0
 Pressure                       0
 diric                          0
 neuma                          0
 11                             0
 12                             0
 13                             0
 Laminar Viscosit            -999
 Turb Viscosity              -999
 CFL                         -999
 Fourier Number              -999
 Total Pressure              -999
 11 Diff                     -999
 12 Diff                     -999
 13 Diff                     -999
 11 Rho                      -999
 12 Rho                      -999
 13 Rho                      -999
 Yplus                       -999
 mu_t                        -999
 u_mean                      -999
 rij                         -999
 diric_mean                  -999
 diric_variance              -999
 diric_flux                  -999
 neuma_mean                  -999
 neuma_variance              -999
 neuma_flux                  -999
 11_mean                     -999
 11_variance                 -999
 11_flux                     -999
 12_mean                     -999
 12_variance                 -999
 12_flux                     -999
 13_mean                     -999
 13_variance                 -999
 13_flux                     -999
 u_grad                      -999
 u_diss                      -999
 mu_t_u_grad                 -999
 mu_t_u_diss                 -999
 diric_grad                  -999
 diric_diss                  -999
 diric_mu_t_t_gra            -999
 diric_mu_t_t_dis            -999
 neuma_grad                  -999
 neuma_diss                  -999
 neuma_mu_t_t_gra            -999
 neuma_mu_t_t_dis            -999
 11_grad                     -999
 11_diss                     -999
 11_mu_t_t_grad              -999
 11_mu_t_t_diss              -999
 12_grad                     -999
 12_diss                     -999
 12_mu_t_t_grad              -999
 12_mu_t_t_diss              -999
 13_grad                     -999
 13_diss                     -999
 13_mu_t_t_grad              -999
 13_mu_t_t_diss              -999
         --           --                --

 --- Additional post-processing variables (ipstdv)
       ipstfo =              1 (Force exerted by the
                                     fluid on the boundary)
       ipstyp =              1 (y+ at boundary)
       ipsttp =              0 (T+ at boundary)
       ipstft =              1 (Thermal flux   at boundary)
       ipstnu =              0 (Dimensionless thermal
                                          flux at boundary)


 -----------------------------------------------------------


 ** ALE METHOD (MOVING MESH)
    -----------

       IALE   =              0 (1: activated                )
       NALINF =              0 (Fluid initialization
                                                  iterations)
       IFLXMW =              0 (ALE mass flux computation
                                0: thanks to vertices
                                1: thanks to mesh velocity)


 -----------------------------------------------------------


Postprocessing output writers:
------------------------------

  -1: name: results
      directory: postprocessing
      format: EnSight Gold
      options: 
      time dependency: fixed mesh
      output: every 200000 time steps and at calculation end

  -5: name: 
      directory: monitoring
      format: time_plot
      options: 
      time dependency: fixed mesh
      output: every 1 time steps

  -6: name: 
      directory: profiles
      format: plot
      options: 
      time dependency: fixed mesh
      output: at calculation end


 Reading file:        mesh_input
 Finished reading:    mesh_input
 No "partition_input/domain_number_180" file available;

 ----------------------------------------------------------

 Ignoring periodicity for graph-based partitioning.

 Partitioning 9360000 cells to 180 domains on 180 ranks
   (SCOTCH_dgraphPart).

  wall-clock time: 16.054131 s

  Number of cells per domain (histogramm):
    [      49406 ;      49915 [ =          5
    [      49915 ;      50425 [ =          6
    [      50425 ;      50934 [ =         14
    [      50934 ;      51444 [ =         19
    [      51444 ;      51954 [ =         47
    [      51954 ;      52463 [ =         36
    [      52463 ;      52973 [ =         27
    [      52973 ;      53482 [ =         11
    [      53482 ;      53992 [ =          7
    [      53992 ;      54502 ] =          8

 Writing file:        partition_output/domain_number_180
 Finished writing:    partition_output/domain_number_180

 Partitioning finished (18.7 s)

 Before insertion of user-defined boundary
   Number of cells:          9360000
   Number of interior faces: 28133600
   Number of boundary faces: 80000
   Number of vertices:       9494235

 After insertion of user-defined boundary
   Number of cells:          9360000
   Number of interior faces: 27960000
   Number of boundary faces: 240000
   Number of vertices:       9575037


 ----------------------------------------------------------
 Composing periodicities

 Halo construction with standard neighborhood
 ============================================

 Face interfaces creation
 Definition of periodic vertices
 Vertex interfaces creation
 Halo creation
 Halo definition
    Local halo definition
    Distant halo creation
    Updating the faces -> cells connectivity

 Histogram of the number of cells per rank:

    minimum value =              49406
    maximum value =              54502

      1 : [      49406 ;      50425 [ =         11
      2 : [      50425 ;      51444 [ =         33
      3 : [      51444 ;      52463 [ =         83
      4 : [      52463 ;      53482 [ =         38
      5 : [      53482 ;      54502 ] =         15

 ----------------------------------------------------------

 Histogram of the number of standard + halo cells per rank:

    minimum value =              56579
    maximum value =              67950

      1 : [      56579 ;      58853 [ =         21
      2 : [      58853 ;      61127 [ =         72
      3 : [      61127 ;      63401 [ =         62
      4 : [      63401 ;      65675 [ =         22
      5 : [      65675 ;      67950 ] =          3

 ----------------------------------------------------------

 Histogram of the number of ghost cells per rank:

    minimum value =               5075
    maximum value =              15116

      1 : [       5075 ;       7083 [ =         17
      2 : [       7083 ;       9091 [ =         73
      3 : [       9091 ;      11099 [ =         69
      4 : [      11099 ;      13107 [ =         18
      5 : [      13107 ;      15116 ] =          3

 ----------------------------------------------------------

 Histogram of the number of interior faces per rank:

    minimum value =             152089
    maximum value =             168959

      1 : [     152089 ;     155463 [ =         16
      2 : [     155463 ;     158837 [ =         42
      3 : [     158837 ;     162211 [ =         77
      4 : [     162211 ;     165585 [ =         33
      5 : [     165585 ;     168959 ] =         12

 ----------------------------------------------------------

 Histogram of the number of boundary faces per rank:

    minimum value =                  0
    maximum value =               5019

      1 : [          0 ;       1003 [ =        106
      2 : [       1003 ;       2007 [ =          6
      3 : [       2007 ;       3011 [ =         30
      4 : [       3011 ;       4015 [ =         24
      5 : [       4015 ;       5019 ] =         14

 ----------------------------------------------------------

 Histogram of the number of interior faces per cell:

    minimum value =                  5
    maximum value =                  6

      1 : [          5 ;          6 ] =    9360000

 ----------------------------------------------------------

 Histogram of the number of neighboring domains per rank:

    minimum value =                  7
    maximum value =                 23

      1 : [          7 ;         10 [ =         17
      2 : [         10 ;         13 [ =         42
      3 : [         13 ;         16 [ =         63
      4 : [         16 ;         19 [ =         51
      5 : [         19 ;         23 ] =          7

 ----------------------------------------------------------

 Global definition of the number of elements (cells, vertices, faces...)
Synchronizing cell families

 Writing file:        mesh_output
 Finished writing:    mesh_output

 Renumbering mesh:

   renumbering for cells:
     pre-numbering:                       none
     cells adjacent to ghost cells last:  no
     numbering:                           none

   renumbering for interior faces:
     cell adjacency pre-ordering:         lowest id first
     faces adjacent to ghost cells last:  no
     numbering:                           none

   renumbering for boundary faces:
     numbering:                           none

 ----------------------------------------------------------

 Histogram of volume mesh matrix bandwidth per rank:

    minimum value =              55313
    maximum value =              67767

      1 : [      55313 ;      57803 [ =         24
      2 : [      57803 ;      60294 [ =         69
      3 : [      60294 ;      62785 [ =         66
      4 : [      62785 ;      65276 [ =         19
      5 : [      65276 ;      67767 ] =          2

 Histogram of volume mesh matrix profile/lines per rank:

    minimum value =               3814
    maximum value =              13581

      1 : [       3814 ;       5767 [ =         44
      2 : [       5767 ;       7720 [ =         92
      3 : [       7720 ;       9674 [ =         32
      4 : [       9674 ;      11627 [ =          9
      5 : [      11627 ;      13581 ] =          3

 Mesh coordinates:               minimum    and maximum
                       X : -1.7763568e-15  6.2830000e+00
                       Y : -1.1470588e+00  1.1470588e+00
                       Z : -8.8817842e-16  3.1420000e+00
 Mesh
     Number of cells:          9360000
     Number of interior faces: 28053600
     Number of boundary faces: 240000
     Number of vertices:       9575037

 Periodic faces (which are also interior faces):
     Periodicity  1:          46800 face couples
     Periodicity  2:          46800 face couples

 Groups:
    "0"
       cells:               9360000
       interior faces:     28053600
       boundary faces:       240000
    "auto:internal_coupling_0"
       boundary faces:       160000

 --- Information on the volumes
       Minimum control volume      =  4.8352417e-07
       Maximum control volume      =  7.6704997e-06
       Total volume for the domain =  4.5288603e+01

  Criterion 1: Orthogonality:
    Number of bad cells detected: 0 -->   0 %

  Criterion 2: Offset:
    Number of bad cells detected: 0 -->   0 %

  Criterion 3: Least-Squares Gradient Quality:
    Number of bad cells detected: 0 -->   0 %

  Criterion 4: Cells Volume Ratio:
    Number of bad cells detected: 0 -->   0 %

  Criterion 5: Guilt by Association:
    Number of bad cells detected: 0 -->   0 %

 Computing geometric quantities (0.105 s)

 Internal coupling
   coupling_id = 0
   Coupled scalar: 11
   Cell group selection criterion: -1.<y<1.
   Face group selection criterion: auto:internal_coupling_0
   Locator: n dist points (total coupled boundary faces) = 160000
                                                             
       ALMAX  =    0.35645E+01 (Characteristic length       )
       ALMAX is the cubic root of the domain volume.


 ----------------------------------------------------------- 

   ** READING MAIN AND AUXILIARY RESTART FILES
      ----------------------------------------


      READING THE MAIN RESTART FILE

 Start reading
 Reading dimensions complete
  Reading the previous time step number (restarting computation)  NTPABS =      1550878
  Reading the previous time step number (restarting computation)  TTPABS =   0.3102E+04
 Reading options complete
  Read variables from restart: restart/main
 Reading complete

         READING THE AUXILIARY RESTART FILE             

 Start reading                                          
   Fin de la lecture des options                        
   Fin de la lecture des proprietes physiques           
   Fin de la lecture du pas de temps                    
   Fin de la lecture des flux de masse                  
   Fin de la lecture des conditions aux limites         
 End reading                                            

 ----------------------------------------------------------- 


 -----------------------------------------------------------


 ** VARIABLES INITIALIZATION
    ------------------------

 -----------------------------------------
  Variable          Min. value  Max. value
 -----------------------------------------                   
  Velocity          0.0000E+00  0.3846E+01
  Velocity         -0.8278E+00  0.8197E+00
  Velocity         -0.1075E+01  0.1114E+01
  Pressure         -0.5603E+00  0.4269E+00
  diric             0.0000E+00  0.3768E-01
  neuma            -0.3564E-01  0.1455E-01
  11               -0.1522E+00  0.2690E-01
  12               -0.4395E+00  0.4902E-01
  13               -0.3113E-01  0.1789E-01
 ---------------------------------

                dt  0.2000E-02  0.2000E-02
 ---------------------------------


  ** Temporal moment accumulated weights
     -----------------------------------

   id   n it.             value
   ---- -------- --------------
   0    50869            101.74


-------------------------------------------------------------

 ------------------------------------------------------------- 



===============================================================



                       MAIN CALCULATION                      
                       ================                      


===============================================================




===============================================================


 INSTANT    0.310175800E+04   TIME STEP NUMBER         1550879
 ============================================================= 


 -----------------------------------------
 Property           Min. value  Max. value
 -----------------------------------------
  density           0.1000E+01  0.1000E+01
  molecular_viscos  0.1416E-03  0.1416E-03
  turbulent_viscos  0.0000E+00  0.3868E-02
 -----------------------------------------

 --- Diffusivity:
 -----------------------------------------------
 Scalar           Number  Min. value  Max. value
 -----------------------------------------------
 diric                 1  0.1994E-03  0.1994E-03
 neuma                 2  0.1994E-03  0.1994E-03
 11                    3  0.1994E-03  0.1994E-03
 12                    4  0.6247E-04  0.1994E-03
 13                    5  0.1994E-03  0.2742E-02
 -----------------------------------------------



   ** INFORMATION ON BOUNDARY FACES TYPE
      ----------------------------------

-------------------------------------------------------------------------
Boundary type          Code    Nb faces
-------------------------------------------------------------------------
Inlet                     2           0
Smooth wall               5      240000
Rough wall                6           0
Symmetry                  4           0
Free outlet               3           0
Free inlet               14           0
Convective inlet         16           0
Free surface             15           0
Undefined                 1           0
-------------------------------------------------------------------------



   ** BOUNDARY MASS FLOW INFORMATION
      ------------------------------

---------------------------------------------------------------
Boundary type          Code    Nb faces           Mass flow
---------------------------------------------------------------
Inlet                     2           0         0.000000000E+00
Smooth wall               5      240000         0.000000000E+00
Rough wall                6           0         0.000000000E+00
Symmetry                  4           0         0.000000000E+00
Free outlet               3           0         0.000000000E+00
Free inlet               14           0         0.000000000E+00
Convective inlet         16           0         0.000000000E+00
Free surface             15           0         0.000000000E+00
Undefined                 1           0         0.000000000E+00
---------------------------------------------------------------

 cedric output : friction bot wall =   0.40928831709299984      -0.72694168481750920        2.9233022746138460E-003
 cedric output : friction top wall =   0.40361510424843200       0.72693620217833554       -5.3202992367061813E-004

 INSTANT    0.310176000E+04   TIME STEP NUMBER         1550880
 ============================================================= 




   ** BOUNDARY MASS FLOW INFORMATION
      ------------------------------

---------------------------------------------------------------
Boundary type          Code    Nb faces           Mass flow
---------------------------------------------------------------
Inlet                     2           0         0.000000000E+00
Smooth wall               5      240000         0.000000000E+00
Rough wall                6           0         0.000000000E+00
Symmetry                  4           0         0.000000000E+00
Free outlet               3           0         0.000000000E+00
Free inlet               14           0         0.000000000E+00
Convective inlet         16           0         0.000000000E+00
Free surface             15           0         0.000000000E+00
Undefined                 1           0         0.000000000E+00
---------------------------------------------------------------

 cedric output : friction bot wall =   0.40925881045446261      -0.72705380963588739        2.9200547691625891E-003
 cedric output : friction top wall =   0.40359936625577858       0.72704015685227263       -5.3117168147520655E-004
 cedric output : bulk fluid temperature =    3101.7599999404770        2.3307715474055940E-002   5.4635471866541486E-011   2.5892181940502890E-010   1.3447924650243724E-009   8.2653101316511975E-010
 cedric output : bulk solid temperature =    3101.7599999404770       -8.4318021174101337E-002 -0.22469847626792516       -2.4925576120808077E-002

 INSTANT    0.310176200E+04   TIME STEP NUMBER         1550881
 ============================================================= 


 cedric output : friction bot wall =   0.40922996656709332      -0.72713380928373383        2.9168333437023294E-003
 cedric output : friction top wall =   0.40358399640803677       0.72712736161817881       -5.3050266588691134E-004

 INSTANT    0.310176400E+04   TIME STEP NUMBER         1550882
 ============================================================= 


 cedric output : friction bot wall =   0.40920183642470526      -0.72721059294907142        2.9136348068478550E-003
 cedric output : friction top wall =   0.40356901702879272       0.72720771866326450       -5.3003830710914046E-004

 INSTANT    0.310176600E+04   TIME STEP NUMBER         1550883
 ============================================================= 


 cedric output : friction bot wall =   0.40917447259079531      -0.72728545574382142        2.9104588325149601E-003
 cedric output : friction top wall =   0.40355445594307848       0.72728107104458406       -5.2979147783821187E-004

 INSTANT    0.310176800E+04   TIME STEP NUMBER         1550884
 ============================================================= 


 cedric output : friction bot wall =   0.40914792958466206      -0.72735242247497045        2.9073007996566064E-003
 cedric output : friction top wall =   0.40354033883895679       0.72734679656299317       -5.2977478725633478E-004

 INSTANT    0.310177000E+04   TIME STEP NUMBER         1550885
 ============================================================= 


 cedric output : friction bot wall =   0.40912226175479660      -0.72741044419299683        2.9041550094076087E-003
 cedric output : friction top wall =   0.40352669102320948       0.72740459636911503       -5.2999936071947379E-004

 INSTANT    0.310177200E+04   TIME STEP NUMBER         1550886
 ============================================================= 


 cedric output : friction bot wall =   0.40909751910443898      -0.72745974991978157        2.9010192165749020E-003
 cedric output : friction top wall =   0.40351353613628627       0.72745473862017518       -5.3047336347704637E-004

 INSTANT    0.310177400E+04   TIME STEP NUMBER         1550887
 ============================================================= 


 cedric output : friction bot wall =   0.40907374964897975      -0.72749960779680234        2.8978950858332348E-003
 cedric output : friction top wall =   0.40350089954957002       0.72749602685090420       -5.3120158961434056E-004

 INSTANT    0.310177600E+04   TIME STEP NUMBER         1550888
 ============================================================= 


 cedric output : friction bot wall =   0.40905100270805189      -0.72753101618312477        2.8947842380942848E-003
 cedric output : friction top wall =   0.40348881338803477       0.72752615334596471       -5.3218480864439829E-004

 INSTANT    0.310177800E+04   TIME STEP NUMBER         1550889
 ============================================================= 


 cedric output : friction bot wall =   0.40902932112920648      -0.72755423664257002        2.8916879255329779E-003
 cedric output : friction top wall =   0.40347731239128393       0.72755229691997736       -5.3342317807130747E-004

 INSTANT    0.310178000E+04   TIME STEP NUMBER         1550890
 ============================================================= 


 cedric output : friction bot wall =   0.40900873978195745      -0.72757264962281121        2.8886062295623315E-003
 cedric output : friction top wall =   0.40346642636318247       0.72756905935692417       -5.3491307286409077E-004
 cedric output : bulk fluid temperature =    3101.7799999404765        2.3307745845480139E-002   5.5974556018319454E-011   2.6306773613415902E-010   1.3036750211427353E-009   8.6423171507673921E-010
 cedric output : bulk solid temperature =    3101.7799999404765       -8.4318090817878125E-002 -0.22469854653548973       -2.4925708069452473E-002

 INSTANT    0.310178200E+04   TIME STEP NUMBER         1550891
 ============================================================= 


 cedric output : friction bot wall =   0.40898929203664802      -0.72758495261159351        2.8855381742032824E-003
 cedric output : friction top wall =   0.40345617492252317       0.72758138546211704       -5.3664401745869396E-004

 INSTANT    0.310178400E+04   TIME STEP NUMBER         1550892
 ============================================================= 


 cedric output : friction bot wall =   0.40897101650349565      -0.72759312728830261        2.8824788696413246E-003
 cedric output : friction top wall =   0.40344656892920544       0.72758906510298815       -5.3860199950025924E-004

 INSTANT    0.310178600E+04   TIME STEP NUMBER         1550893
 ============================================================= 


 cedric output : friction bot wall =   0.40895394866366536      -0.72759779674909986        2.8794215680216437E-003
 cedric output : friction top wall =   0.40343761273813972       0.72759404173512432       -5.4077068670323766E-004

 INSTANT    0.310178800E+04   TIME STEP NUMBER         1550894
 ============================================================= 


 cedric output : friction bot wall =   0.40893811487858855      -0.72759830664618286        2.8763609862865599E-003
 cedric output : friction top wall =   0.40342930939247429       0.72759931411053480       -5.4313260019612326E-004

 INSTANT    0.310179000E+04   TIME STEP NUMBER         1550895
 ============================================================= 


 cedric output : friction bot wall =   0.40892353780779356      -0.72759841751995880        2.8732892016345582E-003
 cedric output : friction top wall =   0.40342166271957391       0.72759500237151875       -5.4567182580534388E-004

 INSTANT    0.310179200E+04   TIME STEP NUMBER         1550896
 ============================================================= 


 cedric output : friction bot wall =   0.40891023920778613      -0.72759471162223610        2.8701956423609594E-003
 cedric output : friction top wall =   0.40341467071747084       0.72759377979889850       -5.4837417486815654E-004

 INSTANT    0.310179400E+04   TIME STEP NUMBER         1550897
 ============================================================= 


 cedric output : friction bot wall =   0.40889823895233662      -0.72759300619722533        2.8670712181044040E-003
 cedric output : friction top wall =   0.40340832300866358       0.72759084362966409       -5.5122333111896102E-004

 INSTANT    0.310179600E+04   TIME STEP NUMBER         1550898
 ============================================================= 


 cedric output : friction bot wall =   0.40888754956877504      -0.72759233348482955        2.8639108690322024E-003
 cedric output : friction top wall =   0.40340261016119955       0.72758974813414579       -5.5419793175048501E-004

 INSTANT    0.310179800E+04   TIME STEP NUMBER         1550899
 ============================================================= 


 cedric output : friction bot wall =   0.40887816868885596      -0.72759370048382721        2.8607071358954005E-003
 cedric output : friction top wall =   0.40339752586876210       0.72759176266895031       -5.5727394216460854E-004

 INSTANT    0.310180000E+04   TIME STEP NUMBER         1550900
 ============================================================= 


 cedric output : friction bot wall =   0.40887008384488632      -0.72759795807427086        2.8574464224664169E-003
 cedric output : friction top wall =   0.40339306590199997       0.72759754197615578       -5.6042642029313638E-004
 cedric output : bulk fluid temperature =    3101.7999999404760        2.3307777360009423E-002   5.7821674298518591E-011   2.6786139935897326E-010   1.3021396853707262E-009   8.7983333336347436E-010
 cedric output : bulk solid temperature =    3101.7999999404760       -8.4318165079078827E-002 -0.22469862312549999       -2.4925845020372990E-002

 INSTANT    0.310180200E+04   TIME STEP NUMBER         1550901
 ============================================================= 


 cedric output : friction bot wall =   0.40886327439508130      -0.72760587329622273        2.8541143665949307E-003
 cedric output : friction top wall =   0.40338922356788859       0.72760603506051336       -5.6363656600899635E-004

 INSTANT    0.310180400E+04   TIME STEP NUMBER         1550902
 ============================================================= 


 cedric output : friction bot wall =   0.40885771705473323      -0.72761674790534103        2.8506976437040238E-003
 cedric output : friction top wall =   0.40338598947917570       0.72761806996939249       -5.6689304625628717E-004

 INSTANT    0.310180600E+04   TIME STEP NUMBER         1550903
 ============================================================= 


 cedric output : friction bot wall =   0.40885338639620838      -0.72763252799198219        2.8471817652686838E-003
 cedric output : friction top wall =   0.40338335811574938       0.72763322360924820       -5.7018598810496261E-004

 INSTANT    0.310180800E+04   TIME STEP NUMBER         1550904
 ============================================================= 


 cedric output : friction bot wall =   0.40885025459241980      -0.72765290176180086        2.8435511782349231E-003
 cedric output : friction top wall =   0.40338132705066898       0.72765235942992057       -5.7350806547724941E-004

 INSTANT    0.310181000E+04   TIME STEP NUMBER         1550905
 ============================================================= 


 cedric output : friction bot wall =   0.40884829186203087      -0.72767682446973858        2.8397909418772429E-003
 cedric output : friction top wall =   0.40337989265202923       0.72767646525704188       -5.7685556860392212E-004

 INSTANT    0.310181200E+04   TIME STEP NUMBER         1550906
 ============================================================= 


 cedric output : friction bot wall =   0.40884746453922849      -0.72770465414459362        2.8358892331336711E-003
 cedric output : friction top wall =   0.40337904847215256       0.72770429693238370       -5.8022596000230266E-004

 INSTANT    0.310181400E+04   TIME STEP NUMBER         1550907
 ============================================================= 


 cedric output : friction bot wall =   0.40884773630533239      -0.72773520333769270        2.8318349686403442E-003
 cedric output : friction top wall =   0.40337878960504359       0.72773629880260948       -5.8361824623733667E-004

 INSTANT    0.310181600E+04   TIME STEP NUMBER         1550908
 ============================================================= 


 cedric output : friction bot wall =   0.40884906724237524      -0.72776791132404872        2.8276147803783409E-003
 cedric output : friction top wall =   0.40337911624603306       0.72776985501026825       -5.8702939205098215E-004

 INSTANT    0.310181800E+04   TIME STEP NUMBER         1550909
 ============================================================= 


 cedric output : friction bot wall =   0.40885141682846049      -0.72780217063271557        2.8232171860411068E-003
 cedric output : friction top wall =   0.40338003890991742       0.72780488057373915       -5.9045936480798568E-004

 INSTANT    0.310182000E+04   TIME STEP NUMBER         1550910
 ============================================================= 


 cedric output : friction bot wall =   0.40885473917873694      -0.72783740443333966        2.8186291041170102E-003
 cedric output : friction top wall =   0.40338157998668989       0.72783957632522833       -5.9391232346297205E-004
 cedric output : bulk fluid temperature =    3101.8199999404756        2.3307809130678054E-002   5.8853639211690443E-011   2.7027484468805082E-010   1.3223036451545577E-009   8.7727146757923758E-010
 cedric output : bulk solid temperature =    3101.8199999404756       -8.4318240940374822E-002 -0.22469870184190122       -2.4925983287029427E-002

 INSTANT    0.310182200E+04   TIME STEP NUMBER         1550911
 ============================================================= 


 cedric output : friction bot wall =   0.40885898157552558      -0.72787201061969309        2.8138407929238505E-003
 cedric output : friction top wall =   0.40338376514457369       0.72787313976023227       -5.9739347260795623E-004

 INSTANT    0.310182400E+04   TIME STEP NUMBER         1550912
 ============================================================= 


 cedric output : friction bot wall =   0.40886408773947858      -0.72790259280010672        2.8088443089767557E-003
 cedric output : friction top wall =   0.40338661915373641       0.72790405895769217       -6.0090683948444659E-004

 INSTANT    0.310182600E+04   TIME STEP NUMBER         1550913
 ============================================================= 


 cedric output : friction bot wall =   0.40886999823276909      -0.72792787181407026        2.8036309105415494E-003
 cedric output : friction top wall =   0.40339016108238901       0.72793024748388357       -6.0445942190620486E-004

 INSTANT    0.310182800E+04   TIME STEP NUMBER         1550914
 ============================================================= 


 cedric output : friction bot wall =   0.40887665663037875      -0.72794735078915529        2.7981905870481465E-003
 cedric output : friction top wall =   0.40339440198094928       0.72795045997846231       -6.0805816682654398E-004

 INSTANT    0.310183000E+04   TIME STEP NUMBER         1550915
 ============================================================= 


 cedric output : friction bot wall =   0.40888401489365434      -0.72796001917510678        2.7925166384685299E-003
 cedric output : friction top wall =   0.40339935276483241       0.72796369575192377       -6.1170780259034799E-004

 INSTANT    0.310183200E+04   TIME STEP NUMBER         1550916
 ============================================================= 


 cedric output : friction bot wall =   0.40889203446723787      -0.72796631050385385        2.7866076468935352E-003
 cedric output : friction top wall =   0.40340503247769988       0.72796936462401973       -6.1540939860319920E-004

 INSTANT    0.310183400E+04   TIME STEP NUMBER         1550917
 ============================================================= 


 cedric output : friction bot wall =   0.40890068447490219      -0.72796798842264832        2.7804658084367335E-003
 cedric output : friction top wall =   0.40341147141599848       0.72797062866948870       -6.1916206014072761E-004

 INSTANT    0.310183600E+04   TIME STEP NUMBER         1550918
 ============================================================= 


 cedric output : friction bot wall =   0.40890993042920953      -0.72796560953757838        2.7740978982547619E-003
 cedric output : friction top wall =   0.40341870333391305       0.72796779296966463       -6.2296096319754883E-004

 INSTANT    0.310183800E+04   TIME STEP NUMBER         1550919
 ============================================================= 


 cedric output : friction bot wall =   0.40891973504297197      -0.72795752588285423        2.7675110076147385E-003
 cedric output : friction top wall =   0.40342676410010225       0.72796126921727899       -6.2679712428430757E-004

 INSTANT    0.310184000E+04   TIME STEP NUMBER         1550920
 ============================================================= 


 cedric output : friction bot wall =   0.40893006814529692      -0.72794456285952891        2.7607119489807519E-003
 cedric output : friction top wall =   0.40343567427084581       0.72794870098928510       -6.3066012555204262E-004
 cedric output : bulk fluid temperature =    3101.8399999404751        2.3307840461254260E-002   5.8519792974492075E-011   2.6899221133911570E-010   1.3559884142765314E-009   8.5755916726659263E-010
 cedric output : bulk solid temperature =    3101.8399999404751       -8.4318315868302907E-002 -0.22469877934348056       -2.4926119939316961E-002

 INSTANT    0.310184200E+04   TIME STEP NUMBER         1550921
 ============================================================= 


 cedric output : friction bot wall =   0.40894090205915334      -0.72792790928829154        2.7537045656090484E-003
 cedric output : friction top wall =   0.40344544243913449       0.72793348529216195       -6.3453960327864551E-004

 INSTANT    0.310184400E+04   TIME STEP NUMBER         1550922
 ============================================================= 


 cedric output : friction bot wall =   0.40895220624049644      -0.72791029371656502        2.7464913224021659E-003
 cedric output : friction top wall =   0.40345608551283119       0.72791452481949137       -6.3842668375943394E-004

 INSTANT    0.310184600E+04   TIME STEP NUMBER         1550923
 ============================================================= 


 cedric output : friction bot wall =   0.40896394494565813      -0.72789245860032570        2.7390793964857515E-003
 cedric output : friction top wall =   0.40346762532441716       0.72789510474878849       -6.4231578409822327E-004

 INSTANT    0.310184800E+04   TIME STEP NUMBER         1550924
 ============================================================= 


 cedric output : friction bot wall =   0.40897608013313808      -0.72787356879549181        2.7314783764453279E-003
 cedric output : friction top wall =   0.40348008134419289       0.72787758399356328       -6.4620545267010719E-004

 INSTANT    0.310185000E+04   TIME STEP NUMBER         1550925
 ============================================================= 


 cedric output : friction bot wall =   0.40898857534598060      -0.72785898032810170        2.7236983774895926E-003
 cedric output : friction top wall =   0.40349347904254979       0.72786068237555290       -6.5009312295887097E-004

 INSTANT    0.310185200E+04   TIME STEP NUMBER         1550926
 ============================================================= 


 cedric output : friction bot wall =   0.40900139804795632      -0.72784395056121487        2.7157537289948931E-003
 cedric output : friction top wall =   0.40350784516659544       0.72784682306061654       -6.5397445895750436E-004

 INSTANT    0.310185400E+04   TIME STEP NUMBER         1550927
 ============================================================= 


 cedric output : friction bot wall =   0.40901452880312850      -0.72783229386297210        2.7076665039075694E-003
 cedric output : friction top wall =   0.40352320569375111       0.72783199808698673       -6.5783937537586105E-004

 INSTANT    0.310185600E+04   TIME STEP NUMBER         1550928
 ============================================================= 


 cedric output : friction bot wall =   0.40902795358461241      -0.72781881529404724        2.6994649669170902E-003
 cedric output : friction top wall =   0.40353958256774441       0.72782327192911478       -6.6166823760425053E-004

 INSTANT    0.310185800E+04   TIME STEP NUMBER         1550929
 ============================================================= 


 cedric output : friction bot wall =   0.40904165961958749      -0.72780979230822729        2.6911768395081314E-003
 cedric output : friction top wall =   0.40355699672370771       0.72781291024420147       -6.6544352676718818E-004

 INSTANT    0.310186000E+04   TIME STEP NUMBER         1550930
 ============================================================= 


 cedric output : friction bot wall =   0.40905564031735497      -0.72779885724940185        2.6828263597777520E-003
 cedric output : friction top wall =   0.40357546211622797       0.72780064516597154       -6.6914790668886324E-004
 cedric output : bulk fluid temperature =    3101.8599999404746        2.3307870705829483E-002   5.8368059307775086E-011   2.6702941548786186E-010   1.4100608652922171E-009   8.2360229916060176E-010
 cedric output : bulk solid temperature =    3101.8599999404746       -8.4318387369652442E-002 -0.22469885275906318       -2.4926252190287931E-002

 INSTANT    0.310186200E+04   TIME STEP NUMBER         1550931
 ============================================================= 


 cedric output : friction bot wall =   0.40906989367248980      -0.72778611932532411        2.6744350971041895E-003
 cedric output : friction top wall =   0.40359498324746707       0.72778684802135674       -6.7276493215693179E-004

 INSTANT    0.310186400E+04   TIME STEP NUMBER         1550932
 ============================================================= 


 cedric output : friction bot wall =   0.40908441676688284      -0.72776921646090142        2.6660213774322991E-003
 cedric output : friction top wall =   0.40361555882137101       0.72776997279730415       -6.7628319504644640E-004

 INSTANT    0.310186600E+04   TIME STEP NUMBER         1550933
 ============================================================= 


 cedric output : friction bot wall =   0.40909920751784912      -0.72774656579661712        2.6576042849034759E-003
 cedric output : friction top wall =   0.40363718740710730       0.72774704474567731       -6.7969711422563161E-004

 INSTANT    0.310186800E+04   TIME STEP NUMBER         1550934
 ============================================================= 


 cedric output : friction bot wall =   0.40911426674104523      -0.72771610753959437        2.6492069490810129E-003
 cedric output : friction top wall =   0.40365987468758524       0.72771567339526144       -6.8300352662541662E-004

 INSTANT    0.310187000E+04   TIME STEP NUMBER         1550935
 ============================================================= 


 cedric output : friction bot wall =   0.40912959923897907      -0.72767559652441582        2.6408544798824356E-003
 cedric output : friction top wall =   0.40368362612915459       0.72767585156873926       -6.8620333620307030E-004

 INSTANT    0.310187200E+04   TIME STEP NUMBER         1550936
 ============================================================= 


 cedric output : friction bot wall =   0.40914520350147893      -0.72762389954396589        2.6325707276468558E-003
 cedric output : friction top wall =   0.40370844099250058       0.72762408460703587       -6.8929853654689098E-004

 INSTANT    0.310187400E+04   TIME STEP NUMBER         1550937
 ============================================================= 


 cedric output : friction bot wall =   0.40916107519766531      -0.72755840439376451        2.6243769593184375E-003
 cedric output : friction top wall =   0.40373432158319678       0.72755867171128108       -6.9229080800507206E-004

 INSTANT    0.310187600E+04   TIME STEP NUMBER         1550938
 ============================================================= 


 cedric output : friction bot wall =   0.40917721525841011      -0.72747798297931587        2.6162924251591571E-003
 cedric output : friction top wall =   0.40376126447756333       0.72747831553378606       -6.9518348180027192E-004

 INSTANT    0.310187800E+04   TIME STEP NUMBER         1550939
 ============================================================= 


 cedric output : friction bot wall =   0.40919362363262557      -0.72738294100752521        2.6083327599526630E-003
 cedric output : friction top wall =   0.40378925588086245       0.72738294807087978       -6.9797689595546444E-004

 INSTANT    0.310188000E+04   TIME STEP NUMBER         1550940
 ============================================================= 


 cedric output : friction bot wall =   0.40921031076297532      -0.72727396029064661        2.6005083297757710E-003
 cedric output : friction top wall =   0.40381827531369041       0.72727315459219388       -7.0067166951808771E-004
 cedric output : bulk fluid temperature =    3101.8799999404741        2.3307899281751712E-002   5.8680644508289221E-011   2.6606618089554237E-010   1.4856430946989837E-009   7.7943397237310701E-010
 cedric output : bulk solid temperature =    3101.8799999404741       -8.4318453246512839E-002 -0.22469891939524614       -2.4926377517155141E-002

 INSTANT    0.310188200E+04   TIME STEP NUMBER         1550941
 ============================================================= 


 cedric output : friction bot wall =   0.40922729752937009      -0.72715106796013007        2.5928291681994323E-003
 cedric output : friction top wall =   0.40384829942630884       0.72714965186731617       -7.0327171653322977E-004

 INSTANT    0.310188400E+04   TIME STEP NUMBER         1550942
 ============================================================= 


 cedric output : friction bot wall =   0.40924459642379313      -0.72701417943842528        2.5853070345613132E-003
 cedric output : friction top wall =   0.40387929918784365       0.72701227447100270       -7.0578152420276133E-004

 INSTANT    0.310188600E+04   TIME STEP NUMBER         1550943
 ============================================================= 


 cedric output : friction bot wall =   0.40926221327841467      -0.72686560543104040        2.5779517813038612E-003
 cedric output : friction top wall =   0.40391124037150999       0.72686410096315113       -7.0821008837058865E-004

 INSTANT    0.310188800E+04   TIME STEP NUMBER         1550944
 ============================================================= 


 cedric output : friction bot wall =   0.40928015882871788      -0.72670562522669579        2.5707702753557174E-003
 cedric output : friction top wall =   0.40394408471028281       0.72670546485956078       -7.1057204457733144E-004

 INSTANT    0.310189000E+04   TIME STEP NUMBER         1550945
 ============================================================= 


 cedric output : friction bot wall =   0.40929843968969781      -0.72653676205859008        2.5637689336677517E-003
 cedric output : friction top wall =   0.40397779357762509       0.72653875863468786       -7.1288390089635847E-004

 INSTANT    0.310189200E+04   TIME STEP NUMBER         1550946
 ============================================================= 


 cedric output : friction bot wall =   0.40931705149749664      -0.72636162822791828        2.5569483184873154E-003
 cedric output : friction top wall =   0.40401232824957678       0.72635932016188576       -7.1516073472339329E-004

 INSTANT    0.310189400E+04   TIME STEP NUMBER         1550947
 ============================================================= 


 cedric output : friction bot wall =   0.40933598463273713      -0.72618405147811482        2.5503002897650394E-003
 cedric output : friction top wall =   0.40404764853278924       0.72618507277889399       -7.1741863883713407E-004

 INSTANT    0.310189600E+04   TIME STEP NUMBER         1550948
 ============================================================= 


 cedric output : friction bot wall =   0.40935523374747051      -0.72600786399435302        2.5438140794113964E-003
 cedric output : friction top wall =   0.40408371454569619       0.72600618111188608       -7.1967127033021445E-004

 INSTANT    0.310189800E+04   TIME STEP NUMBER         1550949
 ============================================================= 


 cedric output : friction bot wall =   0.40937479130940951      -0.72583057654454985        2.5374835385574370E-003
 cedric output : friction top wall =   0.40412048727790240       0.72582873721584840       -7.2192865482407717E-004

 INSTANT    0.310190000E+04   TIME STEP NUMBER         1550950
 ============================================================= 


 cedric output : friction bot wall =   0.40939464671232428      -0.72565514400184983        2.5313057507540876E-003
 cedric output : friction top wall =   0.40415793034499514       0.72565347972504790       -7.2420148137514260E-004
 cedric output : bulk fluid temperature =    3101.8999999404737        2.3307925727814326E-002   5.9032406664714257E-011   2.6487967341975899E-010   1.5664042170623312E-009   7.2759819639792311E-010
 cedric output : bulk solid temperature =    3101.8999999404737       -8.4318511855912895E-002 -0.22469897694027174       -2.4926493949284666E-002

 INSTANT    0.310190200E+04   TIME STEP NUMBER         1550951
 ============================================================= 


 cedric output : friction bot wall =   0.40941480272732445      -0.72548187209264947        2.5252710292924647E-003
 cedric output : friction top wall =   0.40419600631232383       0.72548050501204986       -7.2650130904157461E-004

 INSTANT    0.310190400E+04   TIME STEP NUMBER         1550952
 ============================================================= 


 cedric output : friction bot wall =   0.40943527688407999      -0.72531292793169333        2.5193700749050300E-003
 cedric output : friction top wall =   0.40423467171530730       0.72531115610175223       -7.2883998687292724E-004

 INSTANT    0.310190600E+04   TIME STEP NUMBER         1550953
 ============================================================= 


 cedric output : friction bot wall =   0.40945607423546787      -0.72514898846398201        2.5135904086848997E-003
 cedric output : friction top wall =   0.40427388054499958       0.72514642526315165       -7.3123340578348729E-004

 INSTANT    0.310190800E+04   TIME STEP NUMBER         1550954
 ============================================================= 


 cedric output : friction bot wall =   0.40947719108754471      -0.72498987033011020        2.5079165213529359E-003
 cedric output : friction top wall =   0.40431358661064365       0.72498712309095303       -7.3370114451154099E-004

 INSTANT    0.310191000E+04   TIME STEP NUMBER         1550955
 ============================================================= 


 cedric output : friction bot wall =   0.40949861577378893      -0.72483624197907481        2.5023359479130099E-003
 cedric output : friction top wall =   0.40435374244481848       0.72483305809495113       -7.3626701940252373E-004

 INSTANT    0.310191200E+04   TIME STEP NUMBER         1550956
 ============================================================= 


 cedric output : friction bot wall =   0.40952032161086377      -0.72468737945230588        2.4968394237484927E-003
 cedric output : friction top wall =   0.40439430420367295       0.72468469164887384       -7.3895452479088891E-004

 INSTANT    0.310191400E+04   TIME STEP NUMBER         1550957
 ============================================================= 


 cedric output : friction bot wall =   0.40954227392913622      -0.72454267504793135        2.4914222265839188E-003
 cedric output : friction top wall =   0.40443523247358926       0.72453851237611155       -7.4178269644020777E-004

 INSTANT    0.310191600E+04   TIME STEP NUMBER         1550958
 ============================================================= 


 cedric output : friction bot wall =   0.40956443813919990      -0.72439873222476747        2.4860790053180394E-003
 cedric output : friction top wall =   0.40447648772901301       0.72439380715880231       -7.4476322974191198E-004

 INSTANT    0.310191800E+04   TIME STEP NUMBER         1550959
 ============================================================= 


 cedric output : friction bot wall =   0.40958679162203754      -0.72425496917027909        2.4807948260800444E-003
 cedric output : friction top wall =   0.40451803578736267       0.72424937933876876       -7.4789927114697293E-004

 INSTANT    0.310192000E+04   TIME STEP NUMBER         1550960
 ============================================================= 


 cedric output : friction bot wall =   0.40960932134223826      -0.72411262077299732        2.4755490208659475E-003
 cedric output : friction top wall =   0.40455985095969327       0.72410626139672063       -7.5119337932872982E-004
 cedric output : bulk fluid temperature =    3101.9199999404732        2.3307949757988677E-002   5.9095384855192224E-011   2.6318767284598067E-010   1.6424003169895897E-009   6.7194195536251033E-010
 cedric output : bulk solid temperature =    3101.9199999404732       -8.4318562210827147E-002 -0.22469902395278535       -2.4926600274049783E-002

 INSTANT    0.310192200E+04   TIME STEP NUMBER         1550961
 ============================================================= 


 cedric output : friction bot wall =   0.40963200802352329      -0.72397079942336839        2.4703162417689995E-003
 cedric output : friction top wall =   0.40460191083731134       0.72396470983222194       -7.5465126057535270E-004

 INSTANT    0.310192400E+04   TIME STEP NUMBER         1550962
 ============================================================= 


 cedric output : friction bot wall =   0.40965483206114600      -0.72382862687494609        2.4650713193644508E-003
 cedric output : friction top wall =   0.40464419297021387       0.72382243751707254       -7.5827946578605019E-004

 INSTANT    0.310192600E+04   TIME STEP NUMBER         1550963
 ============================================================= 


 cedric output : friction bot wall =   0.40967777972131991      -0.72368398926027289        2.4598042172650388E-003
 cedric output : friction top wall =   0.40468667865282992       0.72367805965008758       -7.6208481952270567E-004

 INSTANT    0.310192800E+04   TIME STEP NUMBER         1550964
 ============================================================= 


 cedric output : friction bot wall =   0.40970082269476843      -0.72353604996251752        2.4545228429212820E-003
 cedric output : friction top wall =   0.40472935616246403       0.72352997665953389       -7.6608114825467747E-004

 INSTANT    0.310193000E+04   TIME STEP NUMBER         1550965
 ============================================================= 


 cedric output : friction bot wall =   0.40972391705956124      -0.72338587012704703        2.4492365438433198E-003
 cedric output : friction top wall =   0.40477222038692712       0.72337911252729936       -7.7028538797560596E-004

 INSTANT    0.310193200E+04   TIME STEP NUMBER         1550966
 ============================================================= 


 cedric output : friction bot wall =   0.40974703274732210      -0.72323446806475633        2.4439514752531370E-003
 cedric output : friction top wall =   0.40481526537642687       0.72322695022847694       -7.7471389757420702E-004

 INSTANT    0.310193400E+04   TIME STEP NUMBER         1550967
 ============================================================= 


 cedric output : friction bot wall =   0.40977015257609700      -0.72308413231560442        2.4386623656077601E-003
 cedric output : friction top wall =   0.40485848265797342       0.72307588337641537       -7.7937563417099513E-004

 INSTANT    0.310193600E+04   TIME STEP NUMBER         1550968
 ============================================================= 


 cedric output : friction bot wall =   0.40979325908735820      -0.72293590034093325        2.4333589112150713E-003
 cedric output : friction top wall =   0.40490186525272975       0.72292763190281339       -7.8426910627892510E-004

 INSTANT    0.310193800E+04   TIME STEP NUMBER         1550969
 ============================================================= 


 cedric output : friction bot wall =   0.40981634308022918      -0.72278993813343195        2.4280233592610871E-003
 cedric output : friction top wall =   0.40494540793017186       0.72278167096713730       -7.8938542007007733E-004

 INSTANT    0.310194000E+04   TIME STEP NUMBER         1550970
 ============================================================= 


 cedric output : friction bot wall =   0.40983939601852903      -0.72264758387110384        2.4226397029861960E-003
 cedric output : friction top wall =   0.40498911215553235       0.72264019864610041       -7.9471170213080600E-004
 cedric output : bulk fluid temperature =    3101.9399999404727        2.3307971217193739E-002   5.9369755795909119E-011   2.6217575081269416E-010   1.7165181283379147E-009   6.1508294552917266E-010
 cedric output : bulk solid temperature =    3101.9399999404727       -8.4318603794308125E-002 -0.22469905996469419       -2.4926695847934811E-002

 INSTANT    0.310194200E+04   TIME STEP NUMBER         1550971
 ============================================================= 


 cedric output : friction bot wall =   0.40986241213798580      -0.72251009836670388        2.4172084658052738E-003
 cedric output : friction top wall =   0.40503298365110618       0.72250357423360823       -8.0024087899448182E-004

 INSTANT    0.310194400E+04   TIME STEP NUMBER         1550972
 ============================================================= 


 cedric output : friction bot wall =   0.40988539690222558      -0.72237834738848206        2.4117423913182622E-003
 cedric output : friction top wall =   0.40507703122642713       0.72237117662769612       -8.0597096480440503E-004

 INSTANT    0.310194600E+04   TIME STEP NUMBER         1550973
 ============================================================= 


 cedric output : friction bot wall =   0.40990835184912705      -0.72225122553735610        2.4062581452768753E-003
 cedric output : friction top wall =   0.40512126535896714       0.72224386171275445       -8.1190473395443088E-004

 INSTANT    0.310194800E+04   TIME STEP NUMBER         1550974
 ============================================================= 


 cedric output : friction bot wall =   0.40993127150728964      -0.72213199718716292        2.4007688422752302E-003
 cedric output : friction top wall =   0.40516569273839020       0.72212451867219185       -8.1805223168778072E-004

 INSTANT    0.310195000E+04   TIME STEP NUMBER         1550975
 ============================================================= 


 cedric output : friction bot wall =   0.40995414454805823      -0.72201870076206454        2.3952821412935670E-003
 cedric output : friction top wall =   0.40521030992332957       0.72201716457254483       -8.2442404672602629E-004

 INSTANT    0.310195200E+04   TIME STEP NUMBER         1550976
 ============================================================= 


 cedric output : friction bot wall =   0.40997694806840523      -0.72192480992393637        2.3897998437966005E-003
 cedric output : friction top wall =   0.40525510127158715       0.72191823777239261       -8.3102301971061472E-004

 INSTANT    0.310195400E+04   TIME STEP NUMBER         1550977
 ============================================================= 


 cedric output : friction bot wall =   0.40999966258660775      -0.72183829235232655        2.3843233976405254E-003
 cedric output : friction top wall =   0.40530005442057604       0.72183248651213106       -8.3784735676814418E-004

 INSTANT    0.310195600E+04   TIME STEP NUMBER         1550978
 ============================================================= 


 cedric output : friction bot wall =   0.41002228832749826      -0.72176627585264796        2.3788554278890576E-003
 cedric output : friction top wall =   0.40534516028510081       0.72175702626314853       -8.4489331467793767E-004

 INSTANT    0.310195800E+04   TIME STEP NUMBER         1550979
 ============================================================= 


 cedric output : friction bot wall =   0.41004483941540948      -0.72169817472382902        2.3734048443606395E-003
 cedric output : friction top wall =   0.40539040502974721       0.72169358854609067       -8.5215485360751447E-004

 INSTANT    0.310196000E+04   TIME STEP NUMBER         1550980
 ============================================================= 


 cedric output : friction bot wall =   0.41006732799205137      -0.72164091860708357        2.3679856106942152E-003
 cedric output : friction top wall =   0.40543576720348745       0.72163972969925105       -8.5963129634856225E-004
 cedric output : bulk fluid temperature =    3101.9599999404722        2.3307989928676835E-002   5.9077059182692965E-011   2.5952160776320574E-010   1.7904867744529047E-009   5.5312608551371076E-010
 cedric output : bulk solid temperature =    3101.9599999404722       -8.4318636112210688E-002 -0.22469908507438499       -2.4926780016527577E-002

 INSTANT    0.310196200E+04   TIME STEP NUMBER         1550981
 ============================================================= 


 cedric output : friction bot wall =   0.41008975758161165      -0.72160058720491527        2.3626092624545506E-003
 cedric output : friction top wall =   0.40548122258533537       0.72159618413716609       -8.6732839576169609E-004

 INSTANT    0.310196400E+04   TIME STEP NUMBER         1550982
 ============================================================= 


 cedric output : friction bot wall =   0.41011212275847131      -0.72156809471836869        2.3572808355566926E-003
 cedric output : friction top wall =   0.40552674570837965       0.72156359824218474       -8.7525180740973289E-004

 INSTANT    0.310196600E+04   TIME STEP NUMBER         1550983
 ============================================================= 


 cedric output : friction bot wall =   0.41013441604966655      -0.72154344637023726        2.3519934201631878E-003
 cedric output : friction top wall =   0.40557230600031480       0.72153986661904612       -8.8340937272797537E-004

 INSTANT    0.310196800E+04   TIME STEP NUMBER         1550984
 ============================================================= 


 cedric output : friction bot wall =   0.41015662717378526      -0.72153758710569416        2.3467328910236392E-003
 cedric output : friction top wall =   0.40561787207198086       0.72152627243445222       -8.9180830924381622E-004

 INSTANT    0.310197000E+04   TIME STEP NUMBER         1550985
 ============================================================= 


 cedric output : friction bot wall =   0.41017874593314524      -0.72152162662924235        2.3414927323678197E-003
 cedric output : friction top wall =   0.40566342052960247       0.72152472996417494       -9.0045212988736859E-004

 INSTANT    0.310197200E+04   TIME STEP NUMBER         1550986
 ============================================================= 


 cedric output : friction bot wall =   0.41020075677434348      -0.72153932396666198        2.3362719411899940E-003
 cedric output : friction top wall =   0.40570893376752343       0.72153030132368678       -9.0933652674418349E-004

 INSTANT    0.310197400E+04   TIME STEP NUMBER         1550987
 ============================================================= 


 cedric output : friction bot wall =   0.41022264673619524      -0.72154304900542066        2.3310727581511629E-003
 cedric output : friction top wall =   0.40575440378214267       0.72154865968868420       -9.1845096242902267E-004

 INSTANT    0.310197600E+04   TIME STEP NUMBER         1550988
 ============================================================= 


 cedric output : friction bot wall =   0.41024440954334523      -0.72157938985075509        2.3259065044994587E-003
 cedric output : friction top wall =   0.40579982452377006       0.72157310930084817       -9.2778205333087882E-004

 INSTANT    0.310197800E+04   TIME STEP NUMBER         1550989
 ============================================================= 


 cedric output : friction bot wall =   0.41026603131529438      -0.72160415121871746        2.3207825030959733E-003
 cedric output : friction top wall =   0.40584519598924873       0.72160955495147849       -9.3730772753232309E-004

 INSTANT    0.310198000E+04   TIME STEP NUMBER         1550990
 ============================================================= 


 cedric output : friction bot wall =   0.41028749958778632      -0.72165223743522167        2.3156953919754872E-003
 cedric output : friction top wall =   0.40589052279534821       0.72164966256501784       -9.4700341323147570E-004
 cedric output : bulk fluid temperature =    3101.9799999404718        2.3308005681700092E-002   5.8265378766829738E-011   2.5632937175107277E-010   1.8643391695964149E-009   4.8855905270592112E-010
 cedric output : bulk solid temperature =    3101.9799999404718       -8.4318658643117370E-002 -0.22469909934225260       -2.4926852060175884E-002

 INSTANT    0.310198200E+04   TIME STEP NUMBER         1550991
 ============================================================= 


 cedric output : friction bot wall =   0.41030881467104618      -0.72169614916524938        2.3106334626837996E-003
 cedric output : friction top wall =   0.40593580350034653       0.72169656961462381       -9.5684576574316311E-004

 INSTANT    0.310198400E+04   TIME STEP NUMBER         1550992
 ============================================================= 


 cedric output : friction bot wall =   0.41032998418729066      -0.72175078479114763        2.3055795189571514E-003
 cedric output : friction top wall =   0.40598103442751254       0.72175057414048061       -9.6681206199618439E-004

 INSTANT    0.310198600E+04   TIME STEP NUMBER         1550993
 ============================================================= 


 cedric output : friction bot wall =   0.41035101397590557      -0.72181261536951391        2.3005165324387527E-003
 cedric output : friction top wall =   0.40602622047720172       0.72181186938604203       -9.7688502769938601E-004

 INSTANT    0.310198800E+04   TIME STEP NUMBER         1550994
 ============================================================= 


 cedric output : friction bot wall =   0.41037190117762073      -0.72188007722075653        2.2954333389403883E-003
 cedric output : friction top wall =   0.40607137513836311       0.72188086048462496       -9.8705321237474181E-004

 INSTANT    0.310199000E+04   TIME STEP NUMBER         1550995
 ============================================================= 


 cedric output : friction bot wall =   0.41039264029434724      -0.72195814602627806        2.2903283917372380E-003
 cedric output : friction top wall =   0.40611650734752769       0.72195705013950762       -9.9730543739951893E-004

 INSTANT    0.310199200E+04   TIME STEP NUMBER         1550996
 ============================================================= 


 cedric output : friction bot wall =   0.41041321942428999      -0.72203704758715459        2.2851994391190683E-003
 cedric output : friction top wall =   0.40616162109730314       0.72204040934517189       -1.0076266483647449E-003

 INSTANT    0.310199400E+04   TIME STEP NUMBER         1550997
 ============================================================= 


 cedric output : friction bot wall =   0.41043362524081328      -0.72212388614290357        2.2800406833082009E-003
 cedric output : friction top wall =   0.40620672947449121       0.72212835920802343       -1.0179988587718310E-003

 INSTANT    0.310199600E+04   TIME STEP NUMBER         1550998
 ============================================================= 


 cedric output : friction bot wall =   0.41045385855523675      -0.72221591411958208        2.2748437892887194E-003
[...]

 Start writing
   End writing the dimensions and options               
   End writing the physical properties                  
   End writing the time step                            
  Wrote boundary condition coefficients to checkpoint: checkpoint/auxiliary
   End writing the source terms                         
 End writing

 INSTANT    0.499999800E+04   TIME STEP NUMBER         2499999
 ============================================================= 




   ** BOUNDARY MASS FLOW INFORMATION
      ------------------------------

---------------------------------------------------------------
Boundary type          Code    Nb faces           Mass flow
---------------------------------------------------------------
Inlet                     2           0         0.000000000E+00
Smooth wall               5      240000         0.000000000E+00
Rough wall                6           0         0.000000000E+00
Symmetry                  4           0         0.000000000E+00
Free outlet               3           0         0.000000000E+00
Free inlet               14           0         0.000000000E+00
Convective inlet         16           0         0.000000000E+00
Free surface             15           0         0.000000000E+00
Undefined                 1           0         0.000000000E+00
---------------------------------------------------------------

 cedric output : friction bot wall =   0.40721415203464628      -0.71310885386459266       -2.0619283156088873E-004
 cedric output : friction top wall =   0.41017506480600330       0.71312038547619516       -7.7420234160682343E-004

 INSTANT    0.500000000E+04   TIME STEP NUMBER         2500000
 ============================================================= 




   ** BOUNDARY MASS FLOW INFORMATION
      ------------------------------

---------------------------------------------------------------
Boundary type          Code    Nb faces           Mass flow
---------------------------------------------------------------
Inlet                     2           0         0.000000000E+00
Smooth wall               5      240000         0.000000000E+00
Rough wall                6           0         0.000000000E+00
Symmetry                  4           0         0.000000000E+00
Free outlet               3           0         0.000000000E+00
Free inlet               14           0         0.000000000E+00
Convective inlet         16           0         0.000000000E+00
Free surface             15           0         0.000000000E+00
Undefined                 1           0         0.000000000E+00
---------------------------------------------------------------


   ** BOUNDARY CONDITIONS FOR SMOOTH WALLS
   ---------------------------------------
------------------------------------------------------------
                                         Minimum     Maximum
------------------------------------------------------------
   Rel velocity at the wall uiptn :  0.00000E+00 0.00000E+00
   Friction velocity        uet   :  0.00000E+00 0.29961E+00
   Friction velocity        uk    :  0.00000E+00 0.29961E+00
   Dimensionless distance   yplus :  0.00000E+00 0.10372E+01
   ------------------------------------------------------
   Nb of reversal of the velocity at the wall   :          0
   Nb of faces within the viscous sub-layer     :     240000
   Total number of wall faces                   :     240000
------------------------------------------------------------


 cedric output : friction bot wall =   0.40719431059065880      -0.71297898500357659       -2.0792368199372508E-004
 cedric output : friction top wall =   0.41016247510523240       0.71299437845794034       -7.7690542487255005E-004
 cedric output : bulk fluid temperature =    5000.0000001011349        2.3364861027334489E-002   5.1105387427595041E-011   2.5075393382761887E-010   6.8924242722410507E-010   8.8229824147025632E-010
 cedric output : bulk solid temperature =    5000.0000001011349       -8.4365850147575347E-002 -0.22474751046440819       -2.4961960370868123E-002


 Write final restart files
   checkpoint at iteration    2500000, Physical time    0.50000E+04


   ** Writing the main restart file
      -----------------------------

 Start writing
  Wrote field names and types to checkpoint: checkpoint/main
   End writing the options                              
  Wrote main variables to checkpoint: checkpoint/main
 End writing

   ** Writing the auxiliary restart file
      ----------------------------------

 Start writing
   End writing the dimensions and options               
   End writing the physical properties                  
   End writing the time step                            
  Wrote boundary condition coefficients to checkpoint: checkpoint/auxiliary
   End writing the source terms                         
 End writing

   ** INFORMATION ON CONVERGENCE
      --------------------------
----------------------------------------------------------------------------
   Variable     Rhs norm      N_iter  Norm. residual   Drift   Time residual
----------------------------------------------------------------------------
c  Velocity     0.25729E+02       7   0.10275E-04   0.13444E+00 0.29112E+01 
c  Velocity[X]                                      0.46085E-01 
c  Velocity[Y]                                      0.40351E-01 
c  Velocity[Z]                                      0.47999E-01 
c  Pressure     0.32754E-03       9   0.80742E-05   0.13963E+00 0.36642E+02 
c  diric        0.20221E+00       7   0.94671E-05   0.58204E-05 0.24387E+01 
c  neuma        0.24663E-01       9   0.78577E-04   0.58381E-05 0.14703E+02 
c  11           0.27865E+00       7   0.68840E-05   0.58094E-05 0.15003E+01 
c  12           0.40708E+00       4   0.66122E-04   0.53840E-05 0.52438E+00 
c  13           0.94272E-01       8   0.20367E-04   0.57965E-05 0.52228E+01 
----------------------------------------------------------------------------
  
  

  ** Clippings for computed fields
     -----------------------------

   field     initial min     initial max  clips to min  clips to max
-  -----  --------------  --------------  ------------  ------------
a  diric
a  neuma
a  11   
a  12   
a  13   


  ** Computed fields on cells
     ------------------------

   field                        minimum         maximum        set mean    spatial mean
-  --------------------  --------------  --------------  --------------  --------------
v  Velocity[X]                        0          3.9429          1.9229          2.5906
v  Velocity[Y]                 -0.83257          0.7446      1.1865e-09      1.6076e-08
v  Velocity[Z]                 -0.98511          1.0536      0.00035549      0.00064818
v  Velocity                         0           3.946          1.9283          2.5961
v  Pressure                    -0.52867         0.34502      -0.0018097     -1.7467e-17
v  diric                              0        0.033346        0.015024        0.020369
v  neuma                      -0.035815        0.010084      -0.0021413     -1.5322e-18
v  11                          -0.15222        0.022433       -0.007596       -4.29e-18
v  12                          -0.43958        0.043517        -0.01254      1.2257e-18
v  13                         -0.030778        0.013487      -0.0054959      4.5965e-19
v  Laminar Viscosity          0.0001416       0.0001416       0.0001416       0.0001416
v  Turb Viscosity                     0       0.0040402      8.1286e-05      0.00010868
v  CFL                                0         0.62102         0.14599         0.18941
v  Fourier Number             0.0046049         0.95386        0.067686        0.020319
v  Total Pressure            1.0132e+05      1.0133e+05      1.0132e+05      1.0133e+05
v  11 Diff                   0.00019944      0.00019944      0.00019944      0.00019944
v  12 Diff                   6.2472e-05      0.00019944      0.00016315      0.00018188
v  13 Diff                   0.00019944       0.0027421      0.00087314      0.00052542
v  11 Rho                             1               1               1               1
v  12 Rho                       0.40721               1         0.84293           0.924
v  13 Rho                             1          1.3749          1.0993          1.0481
m  mu_t                               0      0.00021667      8.1771e-05
m  u_mean[X]                          0          3.3828          1.9214
m  u_mean[Y]                 -0.0045343       0.0045219      1.5987e-10
m  u_mean[Z]                 -0.0063219       0.0056528      8.8622e-06
m  u_mean                           0          3.3828          1.9214
m  rij[XX]                            0         0.20885        0.040068
m  rij[YY]                            0         0.02577        0.010282
m  rij[ZZ]                            0        0.038564        0.015986
m  rij[XY]                    -0.019633        0.019733     -2.8469e-07
m  rij[YZ]                  -0.00064512      0.00067038      1.3728e-06
m  rij[XZ]                   -0.0024767       0.0024021      7.5285e-07
m  diric_mean                         0        0.026492        0.015011
m  diric_variance                     0      1.4312e-05      3.0702e-06
m  diric_flux[X]                      0        0.089643        0.043391
m  diric_flux[Y]            -0.00024976      0.00024768     -7.0295e-09
m  diric_flux[Z]            -0.00011292      0.00010147      1.9431e-07
m  diric_flux                       0        0.089643        0.043391
m  neuma_mean                 -0.022996       0.0031626      -0.0021193
m  neuma_variance                     0      1.7721e-05      3.9487e-06
m  neuma_flux[X]              -0.017289        0.010732      -0.0013889
m  neuma_flux[Y]            -0.00020474      0.00020758      4.9449e-09
m  neuma_flux[Z]            -5.9269e-05      6.2483e-05      1.1843e-08
m  neuma_flux                       0        0.017289       0.0060147
m  11_mean                     -0.15159        0.015566      -0.0075712
m  11_variance               8.9341e-08      1.5778e-05      3.6381e-06
m  11_flux[X]                -0.0036747        0.052686        0.022425
m  11_flux[Y]               -0.00020896      0.00020601      6.0883e-09
m  11_flux[Z]                -5.719e-05      5.3089e-05      1.1978e-07
m  11_flux                          0        0.052686        0.022744
m  12_mean                     -0.43891        0.036277       -0.012506
m  12_variance               8.8308e-08      1.6692e-05       4.047e-06
m  12_flux[X]                         0         0.12275        0.062111
m  12_flux[Y]               -0.00028343       0.0002834      5.8526e-09
m  12_flux[Z]               -0.00017492      0.00015857      2.9686e-07
m  12_flux                          0         0.12275        0.062111
m  13_mean                    -0.030016       0.0068361      -0.0054783
m  13_variance               9.1676e-08      1.4766e-05      3.2537e-06
m  13_flux[X]                 -0.012325        0.023156       0.0056348
m  13_flux[Y]               -0.00019165      0.00019342      7.6133e-09
m  13_flux[Z]               -4.7581e-05      4.7676e-05       3.453e-08
m  13_flux                          0        0.023156       0.0088587
m  u_grad[XX]                 -0.043738        0.050173       5.534e-11
m  u_grad[XY]                   -150.62          150.12      0.00028334
m  u_grad[XZ]                  -0.71654         0.73949      1.8377e-08
m  u_grad[YX]                -0.0083393       0.0090404     -4.6695e-12
m  u_grad[YY]                  -0.20418         0.13765     -8.0739e-07
m  u_grad[YZ]                  -0.12999         0.13843      2.1674e-09
m  u_grad[ZX]                 -0.012073        0.014502     -2.2058e-11
m  u_grad[ZY]                   -1.0663         0.95375     -0.00045643
m  u_grad[ZZ]                   -0.1361         0.19233     -1.7799e-10
m  u_diss[XX]                         0          25.812          4.5958
m  u_diss[XY]                         0          4104.8          275.51
m  u_diss[XZ]                         0          389.52          46.186
m  u_diss[YX]                         0           6.404          1.9867
m  u_diss[YY]                         0          33.455          6.9536
m  u_diss[YZ]                         0          35.254           8.074
m  u_diss[ZX]                         0          9.4268          3.0596
m  u_diss[ZY]                         0            1067          58.181
m  u_diss[ZZ]                         0          39.268          8.3701
m  mu_t_u_grad[XX]          -1.0576e-07      0.00018738      3.1865e-05
m  mu_t_u_grad[XY]          -0.00053641      0.00053576      -2.577e-08
m  mu_t_u_grad[XZ]          -6.9395e-05      7.3252e-05       2.355e-08
m  mu_t_u_grad[YX]          -5.9099e-05      5.8787e-05      3.8539e-09
m  mu_t_u_grad[YY]          -0.00017779      3.3163e-06     -2.5407e-05
m  mu_t_u_grad[YZ]          -7.7374e-05      7.6679e-05      6.4029e-08
m  mu_t_u_grad[ZX]          -2.2717e-05      1.9956e-05     -1.1203e-08
m  mu_t_u_grad[ZY]          -9.8265e-05      9.2753e-05      -4.162e-08
m  mu_t_u_grad[ZZ]            -5.85e-05      4.9192e-05     -2.5754e-06
m  mu_t_u_diss                        0        0.092519        0.019156
m  diric_grad[X]            -0.00031792      0.00038108      7.1529e-13
m  diric_grad[Y]                -1.0237          1.0214      6.4628e-06
m  diric_grad[Z]             -0.0054023       0.0050093      1.1956e-10
m  diric_grad                       0          1.0237        0.092241
m  diric_diss[XX]                     0       0.0025859       0.0005311
m  diric_diss[YY]                     0         0.21398        0.016583
m  diric_diss[ZZ]                     0        0.024675       0.0032051
m  diric_diss[XY]            -0.0097939       0.0097768     -1.4408e-07
m  diric_diss[YZ]            -0.0012891       0.0013243     -1.6478e-07
m  diric_diss[XZ]           -0.00015512      0.00016869      1.4799e-10
m  diric_mu_t_t_grad[X]     -1.9879e-09      3.6449e-06       7.499e-07
m  diric_mu_t_t_grad[Y]     -9.7064e-06      9.6671e-06     -4.5619e-10
m  diric_mu_t_t_grad[Z]     -5.9533e-07      6.0654e-07      -1.607e-10
m  diric_mu_t_t_grad                0      9.9647e-06      1.8763e-06
m  diric_mu_t_t_diss                  0      5.5468e-06      1.0119e-06
m  neuma_grad[X]            -0.00041313      0.00045794      1.6031e-12
m  neuma_grad[Y]               -0.99898         0.99902      8.0488e-07
m  neuma_grad[Z]             -0.0093209       0.0079584       8.997e-11
m  neuma_grad                       0         0.99902        0.091152
m  neuma_diss[XX]                     0       0.0026788      0.00055406
m  neuma_diss[YY]                     0         0.14777        0.013028
m  neuma_diss[ZZ]                     0        0.026908       0.0040649
m  neuma_diss[XY]             -0.010482        0.010454     -1.5586e-08
m  neuma_diss[YZ]            -0.0016887       0.0015756       3.133e-08
m  neuma_diss[XZ]           -0.00018402      0.00017653     -8.9248e-09
m  neuma_mu_t_t_grad[X]     -1.5027e-09      3.6905e-06      7.5157e-07
m  neuma_mu_t_t_grad[Y]     -9.1882e-06      9.1536e-06     -5.2572e-10
m  neuma_mu_t_t_grad[Z]     -6.2025e-07       6.381e-07      -1.123e-10
m  neuma_mu_t_t_grad                0      9.5229e-06       1.823e-06
m  neuma_mu_t_t_diss                  0      5.7403e-06      1.0286e-06
m  11_grad[X]               -0.00034407      0.00042886       5.933e-12
m  11_grad[Y]                   -1.0054          1.0053     -4.5839e-06
m  11_grad[Z]                -0.0073428       0.0066944      1.6926e-10
m  11_grad                 7.2972e-07          1.0054         0.35666
m  11_diss[XX]               3.6189e-09       0.0026213       0.0005386
m  11_diss[YY]               1.2662e-07         0.13231        0.015016
m  11_diss[ZZ]               1.1574e-06        0.025248       0.0036067
m  11_diss[XY]               -0.0099381       0.0099187      3.6891e-08
m  11_diss[YZ]               -0.0013856        0.001253     -9.5218e-08
m  11_diss[XZ]              -0.00016357      0.00017336      -4.373e-09
m  11_mu_t_t_grad[X]        -1.6956e-09       3.673e-06      7.5054e-07
m  11_mu_t_t_grad[Y]        -9.3991e-06      9.3808e-06     -6.0034e-10
m  11_mu_t_t_grad[Z]        -6.1726e-07      6.2851e-07     -1.2314e-10
m  11_mu_t_t_grad                   0      9.7145e-06        1.85e-06
m  11_mu_t_t_diss                     0      5.5864e-06      1.0132e-06
m  12_grad[X]               -0.00039263      0.00046556      6.2848e-12
m  12_grad[Y]                   -3.2008          3.2002     -5.7591e-06
m  12_grad[Z]                -0.0083821       0.0073229      1.5551e-10
m  12_grad                 1.6167e-06          3.2008         0.93688
m  12_diss[XX]               3.2985e-09       0.0025846      0.00052793
m  12_diss[YY]               1.6873e-07         0.16791        0.017516
m  12_diss[ZZ]               1.0654e-06        0.026148       0.0039447
m  12_diss[XY]                -0.010424        0.010366     -2.2413e-09
m  12_diss[YZ]               -0.0015117       0.0014633     -1.6116e-07
m  12_diss[XZ]              -0.00018719       0.0001794     -3.1589e-08
m  12_mu_t_t_grad[X]        -1.6163e-09      3.3583e-06      6.8531e-07
m  12_mu_t_t_grad[Y]        -9.0541e-06      8.9831e-06     -5.1441e-10
m  12_mu_t_t_grad[Z]        -6.2474e-07      6.4158e-07     -7.9347e-11
m  12_mu_t_t_grad                   0      9.3158e-06      1.8049e-06
m  12_mu_t_t_diss                     0      5.6199e-06      1.0148e-06
m  13_grad[X]               -0.00032495      0.00039069      5.7073e-12
m  13_grad[Y]                   -1.0146          1.0152      -4.338e-06
m  13_grad[Z]                -0.0056833       0.0054907      1.0327e-10
m  13_grad                 1.3659e-06          1.0152         0.11131
m  13_diss[XX]               1.4016e-08       0.0025895      0.00053223
m  13_diss[YY]               2.4492e-08         0.16609        0.015268
m  13_diss[ZZ]                1.723e-06        0.024563       0.0032717
m  13_diss[XY]               -0.0097801       0.0097417      9.5157e-08
m  13_diss[YZ]                -0.001269       0.0012435     -9.9518e-08
m  13_diss[XZ]              -0.00015474      0.00016878     -6.4004e-09
m  13_mu_t_t_grad[X]        -1.8254e-09      3.6506e-06      7.4994e-07
m  13_mu_t_t_grad[Y]        -9.5593e-06      9.5532e-06     -6.6484e-10
m  13_mu_t_t_grad[Z]        -6.0553e-07      6.1618e-07     -1.3467e-10
m  13_mu_t_t_grad                   0      9.8332e-06      1.8671e-06
m  13_mu_t_t_diss                     0      5.5057e-06        1.01e-06

  ** Computed fields on boundary_faces
     ---------------------------------

   field         minimum         maximum        set mean    spatial mean
-  -----  --------------  --------------  --------------  --------------
v  Yplus               0          1.0372         0.16501         0.16501


  ** Computed values on cells
     ------------------------

   criterion               minimum         maximum        set mean    spatial mean
   ---------------  --------------  --------------  --------------  --------------
   Courant/Fourier       0.0046049           1.179         0.21367         0.20973


  ** Temporal moment accumulated weights
     -----------------------------------

   id   n it.             value
   ---- -------- --------------
   0    999991             2000


===============================================================



                 FINAL STAGE OF THE CALCULATION              
                 ==============================              


 =========================================================== 





 =========================================================== 




                      END OF CALCULATION                     
                      ==================                     


===============================================================

 Destroying structures and ending computation
