command: 
 ./cs_solver

***************************************************************

                                  (R)
                      Code_Saturne

                      Version 5.0.3-patch


  Copyright (C) 1998-2017 EDF S.A., France

  revision svn10438-git656943f670811e1682afe1623c2f417eb6a1eb11
  build Tue 08 Aug 2017 08:08:43 AM CEST
  MPI version 3.0 (Open MPI 1.8.5)


  The Code_Saturne CFD tool  is free software;
  you can redistribute it and/or modify it under the terms
  of the GNU General Public License as published by the
  Free Software Foundation; either version 2 of the License,
  or (at your option) any later version.

  The Code_Saturne CFD tool is distributed in the hope that
  it will be useful, but WITHOUT ANY WARRANTY; without even
  the implied warranty of MERCHANTABILITY or FITNESS FOR A
  PARTICULAR PURPOSE.  See the GNU General Public License
  for more details.

***************************************************************


Local case configuration:

  Date:                Mon 04 Sep 2017 02:02:51 AM CEST
  System:              Linux 3.0.42-0.7-default
  Machine:             razor33
  Processor:           model name	: Intel(R) Xeon(R) CPU E5-2697 v3 @ 2.60GHz
  Memory:              258242 MB
  User:                flageul (Cedric Flageul)
  Directory:           /home/r4/flageul/saturne/400_cht/wale_new/RESU/bigrun
  MPI ranks:           168 (appnum attribute: 0)
  I/O read method:     collective MPI-IO (explicit offsets)
  I/O write method:    collective MPI-IO (explicit offsets)
  I/O rank step:        1

  External libraries for partitioning:
    PT-SCOTCH 6.0.4

 Reading metadata from file: "mesh_input"

===============================================================

                   CALCULATION PREPARATION
                   =======================


 ===========================================================



  restart/auxiliary: section "time_moments:sizes" not present.
@
@@@@@@@@@@@@@@@@@@@@@@@@@@@@@@@@@@@@@@@@@@@@@@@@@@@@@@@@@@@@@
@
@ @@   WARNING :      WHEN READING INPUT DATA
@    =========
@   NON-STANDARD CHOICE WITH  TIME-SCHEME
@
@   ORDRE 2 EN TEMPS or the
@   THE VALUE RECOMMANDED FOR THE PARAMETER NSWRSM FOR
@        VARIABLEPressure         IS        10
@     NSWRSM IS NOW IMPOSED AS         5
@
@  computation will go on
@
@ Check the input data given through the User Interface
@   or in cs_user_parameters.f90.
@
@
@@@@@@@@@@@@@@@@@@@@@@@@@@@@@@@@@@@@@@@@@@@@@@@@@@@@@@@@@@@@@
@

@
@@@@@@@@@@@@@@@@@@@@@@@@@@@@@@@@@@@@@@@@@@@@@@@@@@@@@@@@@@@@@
@
@ @@   WARNING :      WHEN READING INPUT DATA
@    =========
@   NON-STANDARD CHOICE WITH  TIME-SCHEME
@
@   ORDRE 2 EN TEMPS or the
@   THE VALUE RECOMMANDED FOR THE PARAMETER NSWRSM FOR
@        VARIABLEPressure         IS        10
@     NSWRSM IS NOW IMPOSED AS         5
@
@  computation will go on
@
@ Check the input data given through the User Interface
@   or in cs_user_parameters.f90.
@
@
@@@@@@@@@@@@@@@@@@@@@@@@@@@@@@@@@@@@@@@@@@@@@@@@@@@@@@@@@@@@@
@

@
@@@@@@@@@@@@@@@@@@@@@@@@@@@@@@@@@@@@@@@@@@@@@@@@@@@@@@@@@@@@@
@
@ @@   WARNING :      WHEN READING INPUT DATA
@    =========
@   NON-STANDARD CHOICE WITH  TIME-SCHEME
@
@   ORDRE 2 EN TEMPS or the
@   THE VALUE RECOMMANDED FOR THE PARAMETER NSWRSM FOR
@        VARIABLEPressure         IS        10
@     NSWRSM IS NOW IMPOSED AS         5
@
@  computation will go on
@
@ Check the input data given through the User Interface
@   or in cs_user_parameters.f90.
@
@
@@@@@@@@@@@@@@@@@@@@@@@@@@@@@@@@@@@@@@@@@@@@@@@@@@@@@@@@@@@@@
@

@
@@@@@@@@@@@@@@@@@@@@@@@@@@@@@@@@@@@@@@@@@@@@@@@@@@@@@@@@@@@@@
@
@ @@   WARNING :      WHEN READING INPUT DATA
@    =========
@   NON-STANDARD CHOICE WITH  TIME-SCHEME
@
@   ORDRE 2 EN TEMPS or the
@   THE VALUE RECOMMANDED FOR THE PARAMETER NSWRSM FOR
@        VARIABLEPressure         IS        10
@     NSWRSM IS NOW IMPOSED AS         5
@
@  computation will go on
@
@ Check the input data given through the User Interface
@   or in cs_user_parameters.f90.
@
@
@@@@@@@@@@@@@@@@@@@@@@@@@@@@@@@@@@@@@@@@@@@@@@@@@@@@@@@@@@@@@
@

@
@@@@@@@@@@@@@@@@@@@@@@@@@@@@@@@@@@@@@@@@@@@@@@@@@@@@@@@@@@@@@
@
@ @@   WARNING :      WHEN READING INPUT DATA
@    =========
@   NON-STANDARD CHOICE WITH  TIME-SCHEME
@
@   ORDRE 2 EN TEMPS or the
@   THE VALUE RECOMMANDED FOR THE PARAMETER NSWRSM FOR
@        VARIABLEPressure         IS        10
@     NSWRSM IS NOW IMPOSED AS         5
@
@  computation will go on
@
@ Check the input data given through the User Interface
@   or in cs_user_parameters.f90.
@
@
@@@@@@@@@@@@@@@@@@@@@@@@@@@@@@@@@@@@@@@@@@@@@@@@@@@@@@@@@@@@@
@

@
@@@@@@@@@@@@@@@@@@@@@@@@@@@@@@@@@@@@@@@@@@@@@@@@@@@@@@@@@@@@@
@
@ @@   WARNING :      WHEN READING INPUT DATA
@    =========
@   NON-STANDARD CHOICE WITH  TIME-SCHEME
@
@   ORDRE 2 EN TEMPS or the
@   THE VALUE RECOMMANDED FOR THE PARAMETER NSWRSM FOR
@        VARIABLEPressure         IS        10
@     NSWRSM IS NOW IMPOSED AS         5
@
@  computation will go on
@
@ Check the input data given through the User Interface
@   or in cs_user_parameters.f90.
@
@
@@@@@@@@@@@@@@@@@@@@@@@@@@@@@@@@@@@@@@@@@@@@@@@@@@@@@@@@@@@@@
@

@
@@@@@@@@@@@@@@@@@@@@@@@@@@@@@@@@@@@@@@@@@@@@@@@@@@@@@@@@@@@@@
@
@ @@   WARNING :      WHEN READING INPUT DATA
@    =========
@   NON-STANDARD CHOICE WITH  TIME-SCHEME
@
@   ORDRE 2 EN TEMPS or the
@   THE VALUE RECOMMANDED FOR THE PARAMETER NSWRSM FOR
@        VARIABLEPressure         IS        10
@     NSWRSM IS NOW IMPOSED AS         5
@
@  computation will go on
@
@ Check the input data given through the User Interface
@   or in cs_user_parameters.f90.
@
@
@@@@@@@@@@@@@@@@@@@@@@@@@@@@@@@@@@@@@@@@@@@@@@@@@@@@@@@@@@@@@
@

@
@@@@@@@@@@@@@@@@@@@@@@@@@@@@@@@@@@@@@@@@@@@@@@@@@@@@@@@@@@@@@
@
@ @@   WARNING :      WHEN READING INPUT DATA
@    =========
@   NON-STANDARD CHOICE WITH  TIME-SCHEME
@
@   ORDRE 2 EN TEMPS or the
@   THE VALUE RECOMMANDED FOR THE PARAMETER NSWRSM FOR
@        VARIABLEPressure         IS        10
@     NSWRSM IS NOW IMPOSED AS         5
@
@  computation will go on
@
@ Check the input data given through the User Interface
@   or in cs_user_parameters.f90.
@
@
@@@@@@@@@@@@@@@@@@@@@@@@@@@@@@@@@@@@@@@@@@@@@@@@@@@@@@@@@@@@@
@

@
@@@@@@@@@@@@@@@@@@@@@@@@@@@@@@@@@@@@@@@@@@@@@@@@@@@@@@@@@@@@@
@
@ @@   WARNING :      WHEN READING INPUT DATA
@    =========
@   NON-STANDARD CHOICE WITH  TIME-SCHEME
@
@   ORDRE 2 EN TEMPS or the
@   THE VALUE RECOMMANDED FOR THE PARAMETER NSWRSM FOR
@        VARIABLEPressure         IS        10
@     NSWRSM IS NOW IMPOSED AS         5
@
@  computation will go on
@
@ Check the input data given through the User Interface
@   or in cs_user_parameters.f90.
@
@
@@@@@@@@@@@@@@@@@@@@@@@@@@@@@@@@@@@@@@@@@@@@@@@@@@@@@@@@@@@@@
@

@
@@@@@@@@@@@@@@@@@@@@@@@@@@@@@@@@@@@@@@@@@@@@@@@@@@@@@@@@@@@@@
@
@ @@   WARNING :      WHEN READING INPUT DATA
@    =========
@   NON-STANDARD CHOICE WITH  TIME-SCHEME
@
@   ORDRE 2 EN TEMPS or the
@   THE VALUE RECOMMANDED FOR THE PARAMETER NSWRSM FOR
@        VARIABLEPressure         IS        10
@     NSWRSM IS NOW IMPOSED AS         5
@
@  computation will go on
@
@ Check the input data given through the User Interface
@   or in cs_user_parameters.f90.
@
@
@@@@@@@@@@@@@@@@@@@@@@@@@@@@@@@@@@@@@@@@@@@@@@@@@@@@@@@@@@@@@
@

@
@@@@@@@@@@@@@@@@@@@@@@@@@@@@@@@@@@@@@@@@@@@@@@@@@@@@@@@@@@@@@
@
@ @@   WARNING :      WHEN READING INPUT DATA
@    =========
@   NON-STANDARD CHOICE WITH  TIME-SCHEME
@
@   ORDRE 2 EN TEMPS or the
@   THE VALUE RECOMMANDED FOR THE PARAMETER NSWRSM FOR
@        VARIABLEPressure         IS        10
@     NSWRSM IS NOW IMPOSED AS         5
@
@  computation will go on
@
@ Check the input data given through the User Interface
@   or in cs_user_parameters.f90.
@
@
@@@@@@@@@@@@@@@@@@@@@@@@@@@@@@@@@@@@@@@@@@@@@@@@@@@@@@@@@@@@@
@

@
@@@@@@@@@@@@@@@@@@@@@@@@@@@@@@@@@@@@@@@@@@@@@@@@@@@@@@@@@@@@@
@
@ @@   WARNING :      WHEN READING INPUT DATA
@    =========
@   NON-STANDARD CHOICE WITH  TIME-SCHEME
@
@   ORDRE 2 EN TEMPS or the
@   THE VALUE RECOMMANDED FOR THE PARAMETER NSWRSM FOR
@        VARIABLEPressure         IS        10
@     NSWRSM IS NOW IMPOSED AS         5
@
@  computation will go on
@
@ Check the input data given through the User Interface
@   or in cs_user_parameters.f90.
@
@
@@@@@@@@@@@@@@@@@@@@@@@@@@@@@@@@@@@@@@@@@@@@@@@@@@@@@@@@@@@@@
@

@
@@@@@@@@@@@@@@@@@@@@@@@@@@@@@@@@@@@@@@@@@@@@@@@@@@@@@@@@@@@@@
@
@ @@   WARNING :      WHEN READING INPUT DATA
@    =========
@   NON-STANDARD CHOICE WITH  TIME-SCHEME
@
@   ORDRE 2 EN TEMPS or the
@   THE VALUE RECOMMANDED FOR THE PARAMETER NSWRSM FOR
@        VARIABLEPressure         IS        10
@     NSWRSM IS NOW IMPOSED AS         5
@
@  computation will go on
@
@ Check the input data given through the User Interface
@   or in cs_user_parameters.f90.
@
@
@@@@@@@@@@@@@@@@@@@@@@@@@@@@@@@@@@@@@@@@@@@@@@@@@@@@@@@@@@@@@
@

@
@@@@@@@@@@@@@@@@@@@@@@@@@@@@@@@@@@@@@@@@@@@@@@@@@@@@@@@@@@@@@
@
@ @@   WARNING :      WHEN READING INPUT DATA
@    =========
@   NON-STANDARD CHOICE WITH  TIME-SCHEME
@
@   ORDRE 2 EN TEMPS or the
@   THE VALUE RECOMMANDED FOR THE PARAMETER NSWRSM FOR
@        VARIABLEPressure         IS        10
@     NSWRSM IS NOW IMPOSED AS         5
@
@  computation will go on
@
@ Check the input data given through the User Interface
@   or in cs_user_parameters.f90.
@
@
@@@@@@@@@@@@@@@@@@@@@@@@@@@@@@@@@@@@@@@@@@@@@@@@@@@@@@@@@@@@@
@

@
@@@@@@@@@@@@@@@@@@@@@@@@@@@@@@@@@@@@@@@@@@@@@@@@@@@@@@@@@@@@@
@
@ @@   WARNING :      WHEN READING INPUT DATA
@    =========
@   NON-STANDARD CHOICE WITH  TIME-SCHEME
@
@   ORDRE 2 EN TEMPS or the
@   THE VALUE RECOMMANDED FOR THE PARAMETER NSWRSM FOR
@        VARIABLEPressure         IS        10
@     NSWRSM IS NOW IMPOSED AS         5
@
@  computation will go on
@
@ Check the input data given through the User Interface
@   or in cs_user_parameters.f90.
@
@
@@@@@@@@@@@@@@@@@@@@@@@@@@@@@@@@@@@@@@@@@@@@@@@@@@@@@@@@@@@@@
@

@
@@@@@@@@@@@@@@@@@@@@@@@@@@@@@@@@@@@@@@@@@@@@@@@@@@@@@@@@@@@@@
@
@ @@   WARNING :      WHEN READING INPUT DATA
@    =========
@   NON-STANDARD CHOICE WITH  TIME-SCHEME
@
@   ORDRE 2 EN TEMPS or the
@   THE VALUE RECOMMANDED FOR THE PARAMETER NSWRSM FOR
@        VARIABLEPressure         IS        10
@     NSWRSM IS NOW IMPOSED AS         5
@
@  computation will go on
@
@ Check the input data given through the User Interface
@   or in cs_user_parameters.f90.
@
@
@@@@@@@@@@@@@@@@@@@@@@@@@@@@@@@@@@@@@@@@@@@@@@@@@@@@@@@@@@@@@
@

@
@@@@@@@@@@@@@@@@@@@@@@@@@@@@@@@@@@@@@@@@@@@@@@@@@@@@@@@@@@@@@
@
@ @@   WARNING :      WHEN READING INPUT DATA
@    =========
@   NON-STANDARD CHOICE WITH  TIME-SCHEME
@
@   ORDRE 2 EN TEMPS or the
@   THE VALUE RECOMMANDED FOR THE PARAMETER NSWRSM FOR
@        VARIABLEPressure         IS        10
@     NSWRSM IS NOW IMPOSED AS         5
@
@  computation will go on
@
@ Check the input data given through the User Interface
@   or in cs_user_parameters.f90.
@
@
@@@@@@@@@@@@@@@@@@@@@@@@@@@@@@@@@@@@@@@@@@@@@@@@@@@@@@@@@@@@@
@

@
@@@@@@@@@@@@@@@@@@@@@@@@@@@@@@@@@@@@@@@@@@@@@@@@@@@@@@@@@@@@@
@
@ @@   WARNING :      WHEN READING INPUT DATA
@    =========
@   NON-STANDARD CHOICE WITH  TIME-SCHEME
@
@   ORDRE 2 EN TEMPS or the
@   THE VALUE RECOMMANDED FOR THE PARAMETER NSWRSM FOR
@        VARIABLEPressure         IS        10
@     NSWRSM IS NOW IMPOSED AS         5
@
@  computation will go on
@
@ Check the input data given through the User Interface
@   or in cs_user_parameters.f90.
@
@
@@@@@@@@@@@@@@@@@@@@@@@@@@@@@@@@@@@@@@@@@@@@@@@@@@@@@@@@@@@@@
@

@
@@@@@@@@@@@@@@@@@@@@@@@@@@@@@@@@@@@@@@@@@@@@@@@@@@@@@@@@@@@@@
@
@ @@   WARNING :      WHEN READING INPUT DATA
@    =========
@   NON-STANDARD CHOICE WITH  TIME-SCHEME
@
@   ORDRE 2 EN TEMPS or the
@   THE VALUE RECOMMANDED FOR THE PARAMETER NSWRSM FOR
@        VARIABLEPressure         IS        10
@     NSWRSM IS NOW IMPOSED AS         5
@
@  computation will go on
@
@ Check the input data given through the User Interface
@   or in cs_user_parameters.f90.
@
@
@@@@@@@@@@@@@@@@@@@@@@@@@@@@@@@@@@@@@@@@@@@@@@@@@@@@@@@@@@@@@
@

@
@@@@@@@@@@@@@@@@@@@@@@@@@@@@@@@@@@@@@@@@@@@@@@@@@@@@@@@@@@@@@
@
@ @@   WARNING :      WHEN READING INPUT DATA
@    =========
@   NON-STANDARD CHOICE WITH  TIME-SCHEME
@
@   ORDRE 2 EN TEMPS or the
@   THE VALUE RECOMMANDED FOR THE PARAMETER NSWRSM FOR
@        VARIABLEPressure         IS        10
@     NSWRSM IS NOW IMPOSED AS         5
@
@  computation will go on
@
@ Check the input data given through the User Interface
@   or in cs_user_parameters.f90.
@
@
@@@@@@@@@@@@@@@@@@@@@@@@@@@@@@@@@@@@@@@@@@@@@@@@@@@@@@@@@@@@@
@

@
@@@@@@@@@@@@@@@@@@@@@@@@@@@@@@@@@@@@@@@@@@@@@@@@@@@@@@@@@@@@@
@
@ @@   WARNING :      WHEN READING INPUT DATA
@    =========
@   NON-STANDARD CHOICE WITH  TIME-SCHEME
@
@   ORDRE 2 EN TEMPS or the
@   THE VALUE RECOMMANDED FOR THE PARAMETER NSWRSM FOR
@        VARIABLEPressure         IS        10
@     NSWRSM IS NOW IMPOSED AS         5
@
@  computation will go on
@
@ Check the input data given through the User Interface
@   or in cs_user_parameters.f90.
@
@
@@@@@@@@@@@@@@@@@@@@@@@@@@@@@@@@@@@@@@@@@@@@@@@@@@@@@@@@@@@@@
@

@
@@@@@@@@@@@@@@@@@@@@@@@@@@@@@@@@@@@@@@@@@@@@@@@@@@@@@@@@@@@@@
@
@ @@   WARNING :      WHEN READING INPUT DATA
@    =========
@   NON-STANDARD CHOICE WITH  TIME-SCHEME
@
@   ORDRE 2 EN TEMPS or the
@   THE VALUE RECOMMANDED FOR THE PARAMETER NSWRSM FOR
@        VARIABLEPressure         IS        10
@     NSWRSM IS NOW IMPOSED AS         5
@
@  computation will go on
@
@ Check the input data given through the User Interface
@   or in cs_user_parameters.f90.
@
@
@@@@@@@@@@@@@@@@@@@@@@@@@@@@@@@@@@@@@@@@@@@@@@@@@@@@@@@@@@@@@
@

@
@@@@@@@@@@@@@@@@@@@@@@@@@@@@@@@@@@@@@@@@@@@@@@@@@@@@@@@@@@@@@
@
@ @@   WARNING :      WHEN READING INPUT DATA
@    =========
@   NON-STANDARD CHOICE WITH  TIME-SCHEME
@
@   ORDRE 2 EN TEMPS or the
@   THE VALUE RECOMMANDED FOR THE PARAMETER NSWRSM FOR
@        VARIABLEPressure         IS        10
@     NSWRSM IS NOW IMPOSED AS         5
@
@  computation will go on
@
@ Check the input data given through the User Interface
@   or in cs_user_parameters.f90.
@
@
@@@@@@@@@@@@@@@@@@@@@@@@@@@@@@@@@@@@@@@@@@@@@@@@@@@@@@@@@@@@@
@

@
@@@@@@@@@@@@@@@@@@@@@@@@@@@@@@@@@@@@@@@@@@@@@@@@@@@@@@@@@@@@@
@
@ @@   WARNING :      WHEN READING INPUT DATA
@    =========
@   NON-STANDARD CHOICE WITH  TIME-SCHEME
@
@   ORDRE 2 EN TEMPS or the
@   THE VALUE RECOMMANDED FOR THE PARAMETER NSWRSM FOR
@        VARIABLEPressure         IS        10
@     NSWRSM IS NOW IMPOSED AS         5
@
@  computation will go on
@
@ Check the input data given through the User Interface
@   or in cs_user_parameters.f90.
@
@
@@@@@@@@@@@@@@@@@@@@@@@@@@@@@@@@@@@@@@@@@@@@@@@@@@@@@@@@@@@@@
@

@
@@@@@@@@@@@@@@@@@@@@@@@@@@@@@@@@@@@@@@@@@@@@@@@@@@@@@@@@@@@@@
@
@ @@   WARNING :      WHEN READING INPUT DATA
@    =========
@   NON-STANDARD CHOICE WITH  TIME-SCHEME
@
@   ORDRE 2 EN TEMPS or the
@   THE VALUE RECOMMANDED FOR THE PARAMETER NSWRSM FOR
@        VARIABLEPressure         IS        10
@     NSWRSM IS NOW IMPOSED AS         5
@
@  computation will go on
@
@ Check the input data given through the User Interface
@   or in cs_user_parameters.f90.
@
@
@@@@@@@@@@@@@@@@@@@@@@@@@@@@@@@@@@@@@@@@@@@@@@@@@@@@@@@@@@@@@
@

@
@@@@@@@@@@@@@@@@@@@@@@@@@@@@@@@@@@@@@@@@@@@@@@@@@@@@@@@@@@@@@
@
@ @@   WARNING :      WHEN READING INPUT DATA
@    =========
@   NON-STANDARD CHOICE WITH  TIME-SCHEME
@
@   ORDRE 2 EN TEMPS or the
@   THE VALUE RECOMMANDED FOR THE PARAMETER NSWRSM FOR
@        VARIABLEPressure         IS        10
@     NSWRSM IS NOW IMPOSED AS         5
@
@  computation will go on
@
@ Check the input data given through the User Interface
@   or in cs_user_parameters.f90.
@
@
@@@@@@@@@@@@@@@@@@@@@@@@@@@@@@@@@@@@@@@@@@@@@@@@@@@@@@@@@@@@@
@

@
@@@@@@@@@@@@@@@@@@@@@@@@@@@@@@@@@@@@@@@@@@@@@@@@@@@@@@@@@@@@@
@
@ @@   WARNING :      WHEN READING INPUT DATA
@    =========
@   NON-STANDARD CHOICE WITH  TIME-SCHEME
@
@   ORDRE 2 EN TEMPS or the
@   THE VALUE RECOMMANDED FOR THE PARAMETER NSWRSM FOR
@        VARIABLEPressure         IS        10
@     NSWRSM IS NOW IMPOSED AS         5
@
@  computation will go on
@
@ Check the input data given through the User Interface
@   or in cs_user_parameters.f90.
@
@
@@@@@@@@@@@@@@@@@@@@@@@@@@@@@@@@@@@@@@@@@@@@@@@@@@@@@@@@@@@@@
@

@
@@@@@@@@@@@@@@@@@@@@@@@@@@@@@@@@@@@@@@@@@@@@@@@@@@@@@@@@@@@@@
@
@ @@   WARNING :      WHEN READING INPUT DATA
@    =========
@   NON-STANDARD CHOICE WITH  TIME-SCHEME
@
@   ORDRE 2 EN TEMPS or the
@   THE VALUE RECOMMANDED FOR THE PARAMETER NSWRSM FOR
@        VARIABLEPressure         IS        10
@     NSWRSM IS NOW IMPOSED AS         5
@
@  computation will go on
@
@ Check the input data given through the User Interface
@   or in cs_user_parameters.f90.
@
@
@@@@@@@@@@@@@@@@@@@@@@@@@@@@@@@@@@@@@@@@@@@@@@@@@@@@@@@@@@@@@
@

@
@@@@@@@@@@@@@@@@@@@@@@@@@@@@@@@@@@@@@@@@@@@@@@@@@@@@@@@@@@@@@
@
@ @@   WARNING :      WHEN READING INPUT DATA
@    =========
@   NON-STANDARD CHOICE WITH  TIME-SCHEME
@
@   ORDRE 2 EN TEMPS or the
@   THE VALUE RECOMMANDED FOR THE PARAMETER NSWRSM FOR
@        VARIABLEPressure         IS        10
@     NSWRSM IS NOW IMPOSED AS         5
@
@  computation will go on
@
@ Check the input data given through the User Interface
@   or in cs_user_parameters.f90.
@
@
@@@@@@@@@@@@@@@@@@@@@@@@@@@@@@@@@@@@@@@@@@@@@@@@@@@@@@@@@@@@@
@

@
@@@@@@@@@@@@@@@@@@@@@@@@@@@@@@@@@@@@@@@@@@@@@@@@@@@@@@@@@@@@@
@
@ @@   WARNING :      WHEN READING INPUT DATA
@    =========
@   NON-STANDARD CHOICE WITH  TIME-SCHEME
@
@   ORDRE 2 EN TEMPS or the
@   THE VALUE RECOMMANDED FOR THE PARAMETER NSWRSM FOR
@        VARIABLEPressure         IS        10
@     NSWRSM IS NOW IMPOSED AS         5
@
@  computation will go on
@
@ Check the input data given through the User Interface
@   or in cs_user_parameters.f90.
@
@
@@@@@@@@@@@@@@@@@@@@@@@@@@@@@@@@@@@@@@@@@@@@@@@@@@@@@@@@@@@@@
@

@
@@@@@@@@@@@@@@@@@@@@@@@@@@@@@@@@@@@@@@@@@@@@@@@@@@@@@@@@@@@@@
@
@ @@   WARNING :      WHEN READING INPUT DATA
@    =========
@   NON-STANDARD CHOICE WITH  TIME-SCHEME
@
@   ORDRE 2 EN TEMPS or the
@   THE VALUE RECOMMANDED FOR THE PARAMETER NSWRSM FOR
@        VARIABLEPressure         IS        10
@     NSWRSM IS NOW IMPOSED AS         5
@
@  computation will go on
@
@ Check the input data given through the User Interface
@   or in cs_user_parameters.f90.
@
@
@@@@@@@@@@@@@@@@@@@@@@@@@@@@@@@@@@@@@@@@@@@@@@@@@@@@@@@@@@@@@
@

@
@@@@@@@@@@@@@@@@@@@@@@@@@@@@@@@@@@@@@@@@@@@@@@@@@@@@@@@@@@@@@
@
@ @@   WARNING :      WHEN READING INPUT DATA
@    =========
@   NON-STANDARD CHOICE WITH  TIME-SCHEME
@
@   ORDRE 2 EN TEMPS or the
@   THE VALUE RECOMMANDED FOR THE PARAMETER NSWRSM FOR
@        VARIABLEPressure         IS        10
@     NSWRSM IS NOW IMPOSED AS         5
@
@  computation will go on
@
@ Check the input data given through the User Interface
@   or in cs_user_parameters.f90.
@
@
@@@@@@@@@@@@@@@@@@@@@@@@@@@@@@@@@@@@@@@@@@@@@@@@@@@@@@@@@@@@@
@

@
@@@@@@@@@@@@@@@@@@@@@@@@@@@@@@@@@@@@@@@@@@@@@@@@@@@@@@@@@@@@@
@
@ @@   WARNING :      WHEN READING INPUT DATA
@    =========
@   NON-STANDARD CHOICE WITH  TIME-SCHEME
@
@   ORDRE 2 EN TEMPS or the
@   THE VALUE RECOMMANDED FOR THE PARAMETER NSWRSM FOR
@        VARIABLEPressure         IS        10
@     NSWRSM IS NOW IMPOSED AS         5
@
@  computation will go on
@
@ Check the input data given through the User Interface
@   or in cs_user_parameters.f90.
@
@
@@@@@@@@@@@@@@@@@@@@@@@@@@@@@@@@@@@@@@@@@@@@@@@@@@@@@@@@@@@@@
@

@
@@@@@@@@@@@@@@@@@@@@@@@@@@@@@@@@@@@@@@@@@@@@@@@@@@@@@@@@@@@@@
@
@ @@   WARNING :      WHEN READING INPUT DATA
@    =========
@   NON-STANDARD CHOICE WITH  TIME-SCHEME
@
@   ORDRE 2 EN TEMPS or the
@   THE VALUE RECOMMANDED FOR THE PARAMETER NSWRSM FOR
@        VARIABLEPressure         IS        10
@     NSWRSM IS NOW IMPOSED AS         5
@
@  computation will go on
@
@ Check the input data given through the User Interface
@   or in cs_user_parameters.f90.
@
@
@@@@@@@@@@@@@@@@@@@@@@@@@@@@@@@@@@@@@@@@@@@@@@@@@@@@@@@@@@@@@
@

@
@@@@@@@@@@@@@@@@@@@@@@@@@@@@@@@@@@@@@@@@@@@@@@@@@@@@@@@@@@@@@
@
@ @@   WARNING :      WHEN READING INPUT DATA
@    =========
@   NON-STANDARD CHOICE WITH  TIME-SCHEME
@
@   ORDRE 2 EN TEMPS or the
@   THE VALUE RECOMMANDED FOR THE PARAMETER NSWRSM FOR
@        VARIABLEPressure         IS        10
@     NSWRSM IS NOW IMPOSED AS         5
@
@  computation will go on
@
@ Check the input data given through the User Interface
@   or in cs_user_parameters.f90.
@
@
@@@@@@@@@@@@@@@@@@@@@@@@@@@@@@@@@@@@@@@@@@@@@@@@@@@@@@@@@@@@@
@

@
@@@@@@@@@@@@@@@@@@@@@@@@@@@@@@@@@@@@@@@@@@@@@@@@@@@@@@@@@@@@@
@
@ @@   WARNING :      WHEN READING INPUT DATA
@    =========
@   NON-STANDARD CHOICE WITH  TIME-SCHEME
@
@   ORDRE 2 EN TEMPS or the
@   THE VALUE RECOMMANDED FOR THE PARAMETER NSWRSM FOR
@        VARIABLEPressure         IS        10
@     NSWRSM IS NOW IMPOSED AS         5
@
@  computation will go on
@
@ Check the input data given through the User Interface
@   or in cs_user_parameters.f90.
@
@
@@@@@@@@@@@@@@@@@@@@@@@@@@@@@@@@@@@@@@@@@@@@@@@@@@@@@@@@@@@@@
@

@
@@@@@@@@@@@@@@@@@@@@@@@@@@@@@@@@@@@@@@@@@@@@@@@@@@@@@@@@@@@@@
@
@ @@   WARNING :      WHEN READING INPUT DATA
@    =========
@   NON-STANDARD CHOICE WITH  TIME-SCHEME
@
@   ORDRE 2 EN TEMPS or the
@   THE VALUE RECOMMANDED FOR THE PARAMETER NSWRSM FOR
@        VARIABLEPressure         IS        10
@     NSWRSM IS NOW IMPOSED AS         5
@
@  computation will go on
@
@ Check the input data given through the User Interface
@   or in cs_user_parameters.f90.
@
@
@@@@@@@@@@@@@@@@@@@@@@@@@@@@@@@@@@@@@@@@@@@@@@@@@@@@@@@@@@@@@
@

@
@@@@@@@@@@@@@@@@@@@@@@@@@@@@@@@@@@@@@@@@@@@@@@@@@@@@@@@@@@@@@
@
@ @@   WARNING :      WHEN READING INPUT DATA
@    =========
@   NON-STANDARD CHOICE WITH  TIME-SCHEME
@
@   ORDRE 2 EN TEMPS or the
@   THE VALUE RECOMMANDED FOR THE PARAMETER NSWRSM FOR
@        VARIABLEPressure         IS        10
@     NSWRSM IS NOW IMPOSED AS         5
@
@  computation will go on
@
@ Check the input data given through the User Interface
@   or in cs_user_parameters.f90.
@
@
@@@@@@@@@@@@@@@@@@@@@@@@@@@@@@@@@@@@@@@@@@@@@@@@@@@@@@@@@@@@@
@

@
@@@@@@@@@@@@@@@@@@@@@@@@@@@@@@@@@@@@@@@@@@@@@@@@@@@@@@@@@@@@@
@
@ @@   WARNING :      WHEN READING INPUT DATA
@    =========
@   NON-STANDARD CHOICE WITH  TIME-SCHEME
@
@   ORDRE 2 EN TEMPS or the
@   THE VALUE RECOMMANDED FOR THE PARAMETER NSWRSM FOR
@        VARIABLEPressure         IS        10
@     NSWRSM IS NOW IMPOSED AS         5
@
@  computation will go on
@
@ Check the input data given through the User Interface
@   or in cs_user_parameters.f90.
@
@
@@@@@@@@@@@@@@@@@@@@@@@@@@@@@@@@@@@@@@@@@@@@@@@@@@@@@@@@@@@@@
@

@
@@@@@@@@@@@@@@@@@@@@@@@@@@@@@@@@@@@@@@@@@@@@@@@@@@@@@@@@@@@@@
@
@ @@   WARNING :      WHEN READING INPUT DATA
@    =========
@   NON-STANDARD CHOICE WITH  TIME-SCHEME
@
@   ORDRE 2 EN TEMPS or the
@   THE VALUE RECOMMANDED FOR THE PARAMETER NSWRSM FOR
@        VARIABLEPressure         IS        10
@     NSWRSM IS NOW IMPOSED AS         5
@
@  computation will go on
@
@ Check the input data given through the User Interface
@   or in cs_user_parameters.f90.
@
@
@@@@@@@@@@@@@@@@@@@@@@@@@@@@@@@@@@@@@@@@@@@@@@@@@@@@@@@@@@@@@
@

@
@@@@@@@@@@@@@@@@@@@@@@@@@@@@@@@@@@@@@@@@@@@@@@@@@@@@@@@@@@@@@
@
@ @@   WARNING :      WHEN READING INPUT DATA
@    =========
@   NON-STANDARD CHOICE WITH  TIME-SCHEME
@
@   ORDRE 2 EN TEMPS or the
@   THE VALUE RECOMMANDED FOR THE PARAMETER NSWRSM FOR
@        VARIABLEPressure         IS        10
@     NSWRSM IS NOW IMPOSED AS         5
@
@  computation will go on
@
@ Check the input data given through the User Interface
@   or in cs_user_parameters.f90.
@
@
@@@@@@@@@@@@@@@@@@@@@@@@@@@@@@@@@@@@@@@@@@@@@@@@@@@@@@@@@@@@@
@

@
@@@@@@@@@@@@@@@@@@@@@@@@@@@@@@@@@@@@@@@@@@@@@@@@@@@@@@@@@@@@@
@
@ @@   WARNING :      WHEN READING INPUT DATA
@    =========
@   NON-STANDARD CHOICE WITH  TIME-SCHEME
@
@   ORDRE 2 EN TEMPS or the
@   THE VALUE RECOMMANDED FOR THE PARAMETER NSWRSM FOR
@        VARIABLEPressure         IS        10
@     NSWRSM IS NOW IMPOSED AS         5
@
@  computation will go on
@
@ Check the input data given through the User Interface
@   or in cs_user_parameters.f90.
@
@
@@@@@@@@@@@@@@@@@@@@@@@@@@@@@@@@@@@@@@@@@@@@@@@@@@@@@@@@@@@@@
@

@
@@@@@@@@@@@@@@@@@@@@@@@@@@@@@@@@@@@@@@@@@@@@@@@@@@@@@@@@@@@@@
@
@ @@   WARNING :      WHEN READING INPUT DATA
@    =========
@   NON-STANDARD CHOICE WITH  TIME-SCHEME
@
@   ORDRE 2 EN TEMPS or the
@   THE VALUE RECOMMANDED FOR THE PARAMETER NSWRSM FOR
@        VARIABLEPressure         IS        10
@     NSWRSM IS NOW IMPOSED AS         5
@
@  computation will go on
@
@ Check the input data given through the User Interface
@   or in cs_user_parameters.f90.
@
@
@@@@@@@@@@@@@@@@@@@@@@@@@@@@@@@@@@@@@@@@@@@@@@@@@@@@@@@@@@@@@
@

@
@@@@@@@@@@@@@@@@@@@@@@@@@@@@@@@@@@@@@@@@@@@@@@@@@@@@@@@@@@@@@
@
@ @@   WARNING :      WHEN READING INPUT DATA
@    =========
@   NON-STANDARD CHOICE WITH  TIME-SCHEME
@
@   ORDRE 2 EN TEMPS or the
@   THE VALUE RECOMMANDED FOR THE PARAMETER NSWRSM FOR
@        VARIABLEPressure         IS        10
@     NSWRSM IS NOW IMPOSED AS         5
@
@  computation will go on
@
@ Check the input data given through the User Interface
@   or in cs_user_parameters.f90.
@
@
@@@@@@@@@@@@@@@@@@@@@@@@@@@@@@@@@@@@@@@@@@@@@@@@@@@@@@@@@@@@@
@

@
@@@@@@@@@@@@@@@@@@@@@@@@@@@@@@@@@@@@@@@@@@@@@@@@@@@@@@@@@@@@@
@
@ @@   WARNING :      WHEN READING INPUT DATA
@    =========
@   NON-STANDARD CHOICE WITH  TIME-SCHEME
@
@   ORDRE 2 EN TEMPS or the
@   THE VALUE RECOMMANDED FOR THE PARAMETER NSWRSM FOR
@        VARIABLEPressure         IS        10
@     NSWRSM IS NOW IMPOSED AS         5
@
@  computation will go on
@
@ Check the input data given through the User Interface
@   or in cs_user_parameters.f90.
@
@
@@@@@@@@@@@@@@@@@@@@@@@@@@@@@@@@@@@@@@@@@@@@@@@@@@@@@@@@@@@@@
@

@
@@@@@@@@@@@@@@@@@@@@@@@@@@@@@@@@@@@@@@@@@@@@@@@@@@@@@@@@@@@@@
@
@ @@   WARNING :      WHEN READING INPUT DATA
@    =========
@   NON-STANDARD CHOICE WITH  TIME-SCHEME
@
@   ORDRE 2 EN TEMPS or the
@   THE VALUE RECOMMANDED FOR THE PARAMETER NSWRSM FOR
@        VARIABLEPressure         IS        10
@     NSWRSM IS NOW IMPOSED AS         5
@
@  computation will go on
@
@ Check the input data given through the User Interface
@   or in cs_user_parameters.f90.
@
@
@@@@@@@@@@@@@@@@@@@@@@@@@@@@@@@@@@@@@@@@@@@@@@@@@@@@@@@@@@@@@
@

@
@@@@@@@@@@@@@@@@@@@@@@@@@@@@@@@@@@@@@@@@@@@@@@@@@@@@@@@@@@@@@
@
@ @@   WARNING :      WHEN READING INPUT DATA
@    =========
@   NON-STANDARD CHOICE WITH  TIME-SCHEME
@
@   ORDRE 2 EN TEMPS or the
@   THE VALUE RECOMMANDED FOR THE PARAMETER NSWRSM FOR
@        VARIABLEPressure         IS        10
@     NSWRSM IS NOW IMPOSED AS         5
@
@  computation will go on
@
@ Check the input data given through the User Interface
@   or in cs_user_parameters.f90.
@
@
@@@@@@@@@@@@@@@@@@@@@@@@@@@@@@@@@@@@@@@@@@@@@@@@@@@@@@@@@@@@@
@

@
@@@@@@@@@@@@@@@@@@@@@@@@@@@@@@@@@@@@@@@@@@@@@@@@@@@@@@@@@@@@@
@
@ @@   WARNING :      WHEN READING INPUT DATA
@    =========
@   NON-STANDARD CHOICE WITH  TIME-SCHEME
@
@   ORDRE 2 EN TEMPS or the
@   THE VALUE RECOMMANDED FOR THE PARAMETER NSWRSM FOR
@        VARIABLEPressure         IS        10
@     NSWRSM IS NOW IMPOSED AS         5
@
@  computation will go on
@
@ Check the input data given through the User Interface
@   or in cs_user_parameters.f90.
@
@
@@@@@@@@@@@@@@@@@@@@@@@@@@@@@@@@@@@@@@@@@@@@@@@@@@@@@@@@@@@@@
@

@
@@@@@@@@@@@@@@@@@@@@@@@@@@@@@@@@@@@@@@@@@@@@@@@@@@@@@@@@@@@@@
@
@ @@   WARNING :      WHEN READING INPUT DATA
@    =========
@   NON-STANDARD CHOICE WITH  TIME-SCHEME
@
@   ORDRE 2 EN TEMPS or the
@   THE VALUE RECOMMANDED FOR THE PARAMETER NSWRSM FOR
@        VARIABLEPressure         IS        10
@     NSWRSM IS NOW IMPOSED AS         5
@
@  computation will go on
@
@ Check the input data given through the User Interface
@   or in cs_user_parameters.f90.
@
@
@@@@@@@@@@@@@@@@@@@@@@@@@@@@@@@@@@@@@@@@@@@@@@@@@@@@@@@@@@@@@
@

@
@@@@@@@@@@@@@@@@@@@@@@@@@@@@@@@@@@@@@@@@@@@@@@@@@@@@@@@@@@@@@
@
@ @@   WARNING :      WHEN READING INPUT DATA
@    =========
@   NON-STANDARD CHOICE WITH  TIME-SCHEME
@
@   ORDRE 2 EN TEMPS or the
@   THE VALUE RECOMMANDED FOR THE PARAMETER NSWRSM FOR
@        VARIABLEPressure         IS        10
@     NSWRSM IS NOW IMPOSED AS         5
@
@  computation will go on
@
@ Check the input data given through the User Interface
@   or in cs_user_parameters.f90.
@
@
@@@@@@@@@@@@@@@@@@@@@@@@@@@@@@@@@@@@@@@@@@@@@@@@@@@@@@@@@@@@@
@

@
@@@@@@@@@@@@@@@@@@@@@@@@@@@@@@@@@@@@@@@@@@@@@@@@@@@@@@@@@@@@@
@
@ @@   WARNING :      WHEN READING INPUT DATA
@    =========
@   NON-STANDARD CHOICE WITH  TIME-SCHEME
@
@   ORDRE 2 EN TEMPS or the
@   THE VALUE RECOMMANDED FOR THE PARAMETER NSWRSM FOR
@        VARIABLEPressure         IS        10
@     NSWRSM IS NOW IMPOSED AS         5
@
@  computation will go on
@
@ Check the input data given through the User Interface
@   or in cs_user_parameters.f90.
@
@
@@@@@@@@@@@@@@@@@@@@@@@@@@@@@@@@@@@@@@@@@@@@@@@@@@@@@@@@@@@@@
@

@
@@@@@@@@@@@@@@@@@@@@@@@@@@@@@@@@@@@@@@@@@@@@@@@@@@@@@@@@@@@@@
@
@ @@   WARNING :      WHEN READING INPUT DATA
@    =========
@   CHOICE OF TIME-SCHEME
@
@     TIME-SCHEME FOR VELOCITY IS SECOND ORDER
@       (THETAV =   0.50E+00)
@     CERTAIN TERMS ARE HOWEVER FIRST ORDER IN TIME  WITH
@       THE FOLLOWING SETTINGS:
@
@ parameters       ISTMPF ISNO2T ISTO2T IROEXT IVIEXT ICPEXT
@ Values  entered      2      1      0      0      0      0
@
@  computation will go on.
@
@ Check the input data given through the User Interface
@   or in cs_user_parameters.f90.
@
@
@@@@@@@@@@@@@@@@@@@@@@@@@@@@@@@@@@@@@@@@@@@@@@@@@@@@@@@@@@@@@
@


Warning in LES, while reading convection scheme parameters for variable diric
-------
Parameter: var_cal_opt.isstpc (slope test) = 1
while its recommended value is equal to 0.

Warning in LES, while reading convection scheme parameters for variable neuma
-------
Parameter: var_cal_opt.isstpc (slope test) = 1
while its recommended value is equal to 0.

Warning in LES, while reading convection scheme parameters for variable 11
-------
Parameter: var_cal_opt.isstpc (slope test) = 1
while its recommended value is equal to 0.

Warning in LES, while reading convection scheme parameters for variable 12
-------
Parameter: var_cal_opt.isstpc (slope test) = 1
while its recommended value is equal to 0.

Warning in LES, while reading convection scheme parameters for variable 13
-------
Parameter: var_cal_opt.isstpc (slope test) = 1
while its recommended value is equal to 0.

Warning in LES, while reading convection scheme parameters for variable 14
-------
Parameter: var_cal_opt.isstpc (slope test) = 1
while its recommended value is equal to 0.

Warning in LES, while reading convection scheme parameters for variable 15
-------
Parameter: var_cal_opt.isstpc (slope test) = 1
while its recommended value is equal to 0.

Warning in LES, while reading convection scheme parameters for variable 16
-------
Parameter: var_cal_opt.isstpc (slope test) = 1
while its recommended value is equal to 0.

Warning in LES, while reading convection scheme parameters for variable 17
-------
Parameter: var_cal_opt.isstpc (slope test) = 1
while its recommended value is equal to 0.

Warning in LES, while reading convection scheme parameters for variable 21
-------
Parameter: var_cal_opt.isstpc (slope test) = 1
while its recommended value is equal to 0.

Warning in LES, while reading convection scheme parameters for variable 22
-------
Parameter: var_cal_opt.isstpc (slope test) = 1
while its recommended value is equal to 0.

Warning in LES, while reading convection scheme parameters for variable 23
-------
Parameter: var_cal_opt.isstpc (slope test) = 1
while its recommended value is equal to 0.

Warning in LES, while reading convection scheme parameters for variable 24
-------
Parameter: var_cal_opt.isstpc (slope test) = 1
while its recommended value is equal to 0.

Warning in LES, while reading convection scheme parameters for variable 25
-------
Parameter: var_cal_opt.isstpc (slope test) = 1
while its recommended value is equal to 0.

Warning in LES, while reading convection scheme parameters for variable 26
-------
Parameter: var_cal_opt.isstpc (slope test) = 1
while its recommended value is equal to 0.

Warning in LES, while reading convection scheme parameters for variable 27
-------
Parameter: var_cal_opt.isstpc (slope test) = 1
while its recommended value is equal to 0.

Warning in LES, while reading convection scheme parameters for variable 31
-------
Parameter: var_cal_opt.isstpc (slope test) = 1
while its recommended value is equal to 0.

Warning in LES, while reading convection scheme parameters for variable 32
-------
Parameter: var_cal_opt.isstpc (slope test) = 1
while its recommended value is equal to 0.

Warning in LES, while reading convection scheme parameters for variable 33
-------
Parameter: var_cal_opt.isstpc (slope test) = 1
while its recommended value is equal to 0.

Warning in LES, while reading convection scheme parameters for variable 34
-------
Parameter: var_cal_opt.isstpc (slope test) = 1
while its recommended value is equal to 0.

Warning in LES, while reading convection scheme parameters for variable 35
-------
Parameter: var_cal_opt.isstpc (slope test) = 1
while its recommended value is equal to 0.

Warning in LES, while reading convection scheme parameters for variable 36
-------
Parameter: var_cal_opt.isstpc (slope test) = 1
while its recommended value is equal to 0.

Warning in LES, while reading convection scheme parameters for variable 37
-------
Parameter: var_cal_opt.isstpc (slope test) = 1
while its recommended value is equal to 0.

Warning in LES, while reading convection scheme parameters for variable 41
-------
Parameter: var_cal_opt.isstpc (slope test) = 1
while its recommended value is equal to 0.

Warning in LES, while reading convection scheme parameters for variable 42
-------
Parameter: var_cal_opt.isstpc (slope test) = 1
while its recommended value is equal to 0.

Warning in LES, while reading convection scheme parameters for variable 43
-------
Parameter: var_cal_opt.isstpc (slope test) = 1
while its recommended value is equal to 0.

Warning in LES, while reading convection scheme parameters for variable 44
-------
Parameter: var_cal_opt.isstpc (slope test) = 1
while its recommended value is equal to 0.

Warning in LES, while reading convection scheme parameters for variable 45
-------
Parameter: var_cal_opt.isstpc (slope test) = 1
while its recommended value is equal to 0.

Warning in LES, while reading convection scheme parameters for variable 46
-------
Parameter: var_cal_opt.isstpc (slope test) = 1
while its recommended value is equal to 0.

Warning in LES, while reading convection scheme parameters for variable 47
-------
Parameter: var_cal_opt.isstpc (slope test) = 1
while its recommended value is equal to 0.

Warning in LES, while reading convection scheme parameters for variable 51
-------
Parameter: var_cal_opt.isstpc (slope test) = 1
while its recommended value is equal to 0.

Warning in LES, while reading convection scheme parameters for variable 52
-------
Parameter: var_cal_opt.isstpc (slope test) = 1
while its recommended value is equal to 0.

Warning in LES, while reading convection scheme parameters for variable 53
-------
Parameter: var_cal_opt.isstpc (slope test) = 1
while its recommended value is equal to 0.

Warning in LES, while reading convection scheme parameters for variable 54
-------
Parameter: var_cal_opt.isstpc (slope test) = 1
while its recommended value is equal to 0.

Warning in LES, while reading convection scheme parameters for variable 55
-------
Parameter: var_cal_opt.isstpc (slope test) = 1
while its recommended value is equal to 0.

Warning in LES, while reading convection scheme parameters for variable 56
-------
Parameter: var_cal_opt.isstpc (slope test) = 1
while its recommended value is equal to 0.

Warning in LES, while reading convection scheme parameters for variable 57
-------
Parameter: var_cal_opt.isstpc (slope test) = 1
while its recommended value is equal to 0.

Warning in LES, while reading convection scheme parameters for variable 61
-------
Parameter: var_cal_opt.isstpc (slope test) = 1
while its recommended value is equal to 0.

Warning in LES, while reading convection scheme parameters for variable 62
-------
Parameter: var_cal_opt.isstpc (slope test) = 1
while its recommended value is equal to 0.

Warning in LES, while reading convection scheme parameters for variable 63
-------
Parameter: var_cal_opt.isstpc (slope test) = 1
while its recommended value is equal to 0.

Warning in LES, while reading convection scheme parameters for variable 64
-------
Parameter: var_cal_opt.isstpc (slope test) = 1
while its recommended value is equal to 0.

Warning in LES, while reading convection scheme parameters for variable 65
-------
Parameter: var_cal_opt.isstpc (slope test) = 1
while its recommended value is equal to 0.

Warning in LES, while reading convection scheme parameters for variable 66
-------
Parameter: var_cal_opt.isstpc (slope test) = 1
while its recommended value is equal to 0.

Warning in LES, while reading convection scheme parameters for variable 67
-------
Parameter: var_cal_opt.isstpc (slope test) = 1
while its recommended value is equal to 0.

Warning in LES, while reading convection scheme parameters for variable 71
-------
Parameter: var_cal_opt.isstpc (slope test) = 1
while its recommended value is equal to 0.

Warning in LES, while reading convection scheme parameters for variable 72
-------
Parameter: var_cal_opt.isstpc (slope test) = 1
while its recommended value is equal to 0.

Warning in LES, while reading convection scheme parameters for variable 73
-------
Parameter: var_cal_opt.isstpc (slope test) = 1
while its recommended value is equal to 0.

Warning in LES, while reading convection scheme parameters for variable 74
-------
Parameter: var_cal_opt.isstpc (slope test) = 1
while its recommended value is equal to 0.

Warning in LES, while reading convection scheme parameters for variable 75
-------
Parameter: var_cal_opt.isstpc (slope test) = 1
while its recommended value is equal to 0.

Warning in LES, while reading convection scheme parameters for variable 76
-------
Parameter: var_cal_opt.isstpc (slope test) = 1
while its recommended value is equal to 0.

Warning in LES, while reading convection scheme parameters for variable 77
-------
Parameter: var_cal_opt.isstpc (slope test) = 1
while its recommended value is equal to 0.

 No error detected during the data verification
                          cs_user_parameters.f90 and others).


 ===========================================================

               CALCULATION PARAMETERS SUMMARY
               ==============================

 -----------------------------------------------------------


 ** DIMENSIONS
    ----------

 --- Physics
       NVAR   =             55 (Nb variables                )
       NSCAL  =             51 (Nb scalars                  )
       NSCAUS =             51 (Nb user scalars             )
       NSCAPP =              0 (Nb specific physics scalars )


 -----------------------------------------------------------


 ** VOF METHOD                              
    ----------------------------------------

       IVOFMT =             -1 ( -1: inactive                )
                               (  0: active                  )


 ** HOMOGENEOUS MIXTURE MODEL FOR CAVITATION
    ----------------------------------------

       ICAVIT =             -1 (-1: single phase flow       )
                               ( 0: no vap./cond. model     )
                               ( 1: Merkle's model        )


 -----------------------------------------------------------


 ** TIME STEPPING
    -------------

 --- Per-variable properties

------------------------------------
 Variable          ISTAT      CDTVAR
------------------------------------
 Velocity              1  0.1000E+01
 Pressure              0  0.1000E+01
 diric                 1  0.1000E+01
 neuma                 1  0.1000E+01
 11                    1  0.1000E+01
 12                    1  0.1000E+01
 13                    1  0.1000E+01
 14                    1  0.1000E+01
 15                    1  0.1000E+01
 16                    1  0.1000E+01
 17                    1  0.1000E+01
 21                    1  0.1000E+01
 22                    1  0.1000E+01
 23                    1  0.1000E+01
 24                    1  0.1000E+01
 25                    1  0.1000E+01
 26                    1  0.1000E+01
 27                    1  0.1000E+01
 31                    1  0.1000E+01
 32                    1  0.1000E+01
 33                    1  0.1000E+01
 34                    1  0.1000E+01
 35                    1  0.1000E+01
 36                    1  0.1000E+01
 37                    1  0.1000E+01
 41                    1  0.1000E+01
 42                    1  0.1000E+01
 43                    1  0.1000E+01
 44                    1  0.1000E+01
 45                    1  0.1000E+01
 46                    1  0.1000E+01
 47                    1  0.1000E+01
 51                    1  0.1000E+01
 52                    1  0.1000E+01
 53                    1  0.1000E+01
 54                    1  0.1000E+01
 55                    1  0.1000E+01
 56                    1  0.1000E+01
 57                    1  0.1000E+01
 61                    1  0.1000E+01
 62                    1  0.1000E+01
 63                    1  0.1000E+01
 64                    1  0.1000E+01
 65                    1  0.1000E+01
 66                    1  0.1000E+01
 67                    1  0.1000E+01
 71                    1  0.1000E+01
 72                    1  0.1000E+01
 73                    1  0.1000E+01
 74                    1  0.1000E+01
 75                    1  0.1000E+01
 76                    1  0.1000E+01
 77                    1  0.1000E+01
----------------------------

       ISTAT  =  0 ou  1       (1 for unsteady              )
       CDTVAR >  0             (time step multiplier        )

 --- Order of base time stepping scheme
       ISCHTP =              2 (1: order 1; 2: order 2      )
                                                             

 -----------------------------------------------------------


 ** STOKES
    ------

  -- Phase continue :

       ISTMPF =              2 (time scheme for flow
                               (0: explicit (THETFL = 0     )
                               (1: std scheme (Saturne 1.0  )
                               (2: 2nd-order (THETFL = 0.5  )
       THETFL =    0.50000E+00 (theta for mass flow         )
       IROEXT =              0 (density extrapolation
                               (0: explicit
                               (1: n+thetro with thetro=1/2
                               (2: n+thetro with thetro=1
       THETRO =    0.00000E+00 (theta for density
                               ((1+theta).new-theta.old
       IVIEXT =              0 (total viscosity extrapolation
                               (0: explicit
                               (1: n+thetvi with thetro=1/2
                               (2: n+thetvi with thetro=1
       THETVI =    0.00000E+00 (theta for total viscosity
                               ((1+theta).new-theta.old
       ICPEXT =              0 (specific heat extrapolation
                               (0: explicit
                               (1: n+thetcp with thetro=1/2
                               (2: n+thetcp with thetro=1
       THETCP =    0.00000E+00 (specific heat theta-scheme
                               ((1+theta).new-theta.old
       THETSN =    0.50000E+00 (Nav-Stokes S.T. theta scheme)
                               ((1+theta).new-theta.old
       THETST =    0.00000E+00 (Turbulence S.T. theta-scheme)
                               ((1+theta).new-theta.old
       EPSUP  =    0.10000E-04 (Velocity/pressure coupling
                                stop test                   )


 -----------------------------------------------------------


 ** BASE ITERATIVE SOLVERS
    ----------------------

------------------------------------
 Variable              EPSILO IDIRCL
------------------------------------
 Velocity          0.1000E-04      1
 Pressure          0.1000E-04      1
 diric             0.1000E-04      1
 neuma             0.1000E-04      1
 11                0.1000E-04      1
 12                0.1000E-04      1
 13                0.1000E-04      1
 14                0.1000E-04      1
 15                0.1000E-04      1
 16                0.1000E-04      1
 17                0.1000E-04      1
 21                0.1000E-04      1
 22                0.1000E-04      1
 23                0.1000E-04      1
 24                0.1000E-04      1
 25                0.1000E-04      1
 26                0.1000E-04      1
 27                0.1000E-04      1
 31                0.1000E-04      1
 32                0.1000E-04      1
 33                0.1000E-04      1
 34                0.1000E-04      1
 35                0.1000E-04      1
 36                0.1000E-04      1
 37                0.1000E-04      1
 41                0.1000E-04      1
 42                0.1000E-04      1
 43                0.1000E-04      1
 44                0.1000E-04      1
 45                0.1000E-04      1
 46                0.1000E-04      1
 47                0.1000E-04      1
 51                0.1000E-04      1
 52                0.1000E-04      1
 53                0.1000E-04      1
 54                0.1000E-04      1
 55                0.1000E-04      1
 56                0.1000E-04      1
 57                0.1000E-04      1
 61                0.1000E-04      1
 62                0.1000E-04      1
 63                0.1000E-04      1
 64                0.1000E-04      1
 65                0.1000E-04      1
 66                0.1000E-04      1
 67                0.1000E-04      1
 71                0.1000E-04      1
 72                0.1000E-04      1
 73                0.1000E-04      1
 74                0.1000E-04      1
 75                0.1000E-04      1
 76                0.1000E-04      1
 77                0.1000E-04      1
------------------------------------

       EPSILO =                (resolution precision)
       IDIRCL = 0 ou 1         (shift diagonal if
                                ISTAT=0 and no Dirichlet)


 -----------------------------------------------------------


 ** SCALARS
    -------

       ITBRRB =              0 (T or H reconstruction at bdy)

-------------------------------------------------------------
 Variable         Number ISCACP  ITURT     VISLS0      SIGMAS
-------------------------------------------------------------
 diric                 1      0      0  0.1994E-03  0.1000E+01
 neuma                 2      0      0  0.1994E-03  0.1000E+01
 11                    3      0      0  0.1994E-03  0.1000E+01
 12                    4      0      0  0.1994E-03  0.1000E+01
 13                    5      0      0  0.1994E-03  0.1000E+01
 14                    6      0      0  0.1994E-03  0.1000E+01
 15                    7      0      0  0.1994E-03  0.1000E+01
 16                    8      0      0  0.1994E-03  0.1000E+01
 17                    9      0      0  0.1994E-03  0.1000E+01
 21                   10      0      0  0.1994E-03  0.1000E+01
 22                   11      0      0  0.1994E-03  0.1000E+01
 23                   12      0      0  0.1994E-03  0.1000E+01
 24                   13      0      0  0.1994E-03  0.1000E+01
 25                   14      0      0  0.1994E-03  0.1000E+01
 26                   15      0      0  0.1994E-03  0.1000E+01
 27                   16      0      0  0.1994E-03  0.1000E+01
 31                   17      0      0  0.1994E-03  0.1000E+01
 32                   18      0      0  0.1994E-03  0.1000E+01
 33                   19      0      0  0.1994E-03  0.1000E+01
 34                   20      0      0  0.1994E-03  0.1000E+01
 35                   21      0      0  0.1994E-03  0.1000E+01
 36                   22      0      0  0.1994E-03  0.1000E+01
 37                   23      0      0  0.1994E-03  0.1000E+01
 41                   24      0      0  0.1994E-03  0.1000E+01
 42                   25      0      0  0.1994E-03  0.1000E+01
 43                   26      0      0  0.1994E-03  0.1000E+01
 44                   27      0      0  0.1994E-03  0.1000E+01
 45                   28      0      0  0.1994E-03  0.1000E+01
 46                   29      0      0  0.1994E-03  0.1000E+01
 47                   30      0      0  0.1994E-03  0.1000E+01
 51                   31      0      0  0.1994E-03  0.1000E+01
 52                   32      0      0  0.1994E-03  0.1000E+01
 53                   33      0      0  0.1994E-03  0.1000E+01
 54                   34      0      0  0.1994E-03  0.1000E+01
 55                   35      0      0  0.1994E-03  0.1000E+01
 56                   36      0      0  0.1994E-03  0.1000E+01
 57                   37      0      0  0.1994E-03  0.1000E+01
 61                   38      0      0  0.1994E-03  0.1000E+01
 62                   39      0      0  0.1994E-03  0.1000E+01
 63                   40      0      0  0.1994E-03  0.1000E+01
 64                   41      0      0  0.1994E-03  0.1000E+01
 65                   42      0      0  0.1994E-03  0.1000E+01
 66                   43      0      0  0.1994E-03  0.1000E+01
 67                   44      0      0  0.1994E-03  0.1000E+01
 71                   45      0      0  0.1994E-03  0.1000E+01
 72                   46      0      0  0.1994E-03  0.1000E+01
 73                   47      0      0  0.1994E-03  0.1000E+01
 74                   48      0      0  0.1994E-03  0.1000E+01
 75                   49      0      0  0.1994E-03  0.1000E+01
 76                   50      0      0  0.1994E-03  0.1000E+01
 77                   51      0      0  0.1994E-03  0.1000E+01
-------------------------------------------------------------

------------------------------------
 Variable         Number      RVARFL
------------------------------------
 diric                 1  0.8000E+00
 neuma                 2  0.8000E+00
 11                    3  0.8000E+00
 12                    4  0.8000E+00
 13                    5  0.8000E+00
 14                    6  0.8000E+00
 15                    7  0.8000E+00
 16                    8  0.8000E+00
 17                    9  0.8000E+00
 21                   10  0.8000E+00
 22                   11  0.8000E+00
 23                   12  0.8000E+00
 24                   13  0.8000E+00
 25                   14  0.8000E+00
 26                   15  0.8000E+00
 27                   16  0.8000E+00
 31                   17  0.8000E+00
 32                   18  0.8000E+00
 33                   19  0.8000E+00
 34                   20  0.8000E+00
 35                   21  0.8000E+00
 36                   22  0.8000E+00
 37                   23  0.8000E+00
 41                   24  0.8000E+00
 42                   25  0.8000E+00
 43                   26  0.8000E+00
 44                   27  0.8000E+00
 45                   28  0.8000E+00
 46                   29  0.8000E+00
 47                   30  0.8000E+00
 51                   31  0.8000E+00
 52                   32  0.8000E+00
 53                   33  0.8000E+00
 54                   34  0.8000E+00
 55                   35  0.8000E+00
 56                   36  0.8000E+00
 57                   37  0.8000E+00
 61                   38  0.8000E+00
 62                   39  0.8000E+00
 63                   40  0.8000E+00
 64                   41  0.8000E+00
 65                   42  0.8000E+00
 66                   43  0.8000E+00
 67                   44  0.8000E+00
 71                   45  0.8000E+00
 72                   46  0.8000E+00
 73                   47  0.8000E+00
 74                   48  0.8000E+00
 75                   49  0.8000E+00
 76                   50  0.8000E+00
 77                   51  0.8000E+00
-------------------------------------------

-------------------------------------------------------
 Variable         Number ICLVFL      SCAMIN      SCAMAX
-------------------------------------------------------
 diric                 1     -1 -0.1000E+13  0.1000E+13
 neuma                 2     -1 -0.1000E+13  0.1000E+13
 11                    3     -1 -0.1000E+13  0.1000E+13
 12                    4     -1 -0.1000E+13  0.1000E+13
 13                    5     -1 -0.1000E+13  0.1000E+13
 14                    6     -1 -0.1000E+13  0.1000E+13
 15                    7     -1 -0.1000E+13  0.1000E+13
 16                    8     -1 -0.1000E+13  0.1000E+13
 17                    9     -1 -0.1000E+13  0.1000E+13
 21                   10     -1 -0.1000E+13  0.1000E+13
 22                   11     -1 -0.1000E+13  0.1000E+13
 23                   12     -1 -0.1000E+13  0.1000E+13
 24                   13     -1 -0.1000E+13  0.1000E+13
 25                   14     -1 -0.1000E+13  0.1000E+13
 26                   15     -1 -0.1000E+13  0.1000E+13
 27                   16     -1 -0.1000E+13  0.1000E+13
 31                   17     -1 -0.1000E+13  0.1000E+13
 32                   18     -1 -0.1000E+13  0.1000E+13
 33                   19     -1 -0.1000E+13  0.1000E+13
 34                   20     -1 -0.1000E+13  0.1000E+13
 35                   21     -1 -0.1000E+13  0.1000E+13
 36                   22     -1 -0.1000E+13  0.1000E+13
 37                   23     -1 -0.1000E+13  0.1000E+13
 41                   24     -1 -0.1000E+13  0.1000E+13
 42                   25     -1 -0.1000E+13  0.1000E+13
 43                   26     -1 -0.1000E+13  0.1000E+13
 44                   27     -1 -0.1000E+13  0.1000E+13
 45                   28     -1 -0.1000E+13  0.1000E+13
 46                   29     -1 -0.1000E+13  0.1000E+13
 47                   30     -1 -0.1000E+13  0.1000E+13
 51                   31     -1 -0.1000E+13  0.1000E+13
 52                   32     -1 -0.1000E+13  0.1000E+13
 53                   33     -1 -0.1000E+13  0.1000E+13
 54                   34     -1 -0.1000E+13  0.1000E+13
 55                   35     -1 -0.1000E+13  0.1000E+13
 56                   36     -1 -0.1000E+13  0.1000E+13
 57                   37     -1 -0.1000E+13  0.1000E+13
 61                   38     -1 -0.1000E+13  0.1000E+13
 62                   39     -1 -0.1000E+13  0.1000E+13
 63                   40     -1 -0.1000E+13  0.1000E+13
 64                   41     -1 -0.1000E+13  0.1000E+13
 65                   42     -1 -0.1000E+13  0.1000E+13
 66                   43     -1 -0.1000E+13  0.1000E+13
 67                   44     -1 -0.1000E+13  0.1000E+13
 71                   45     -1 -0.1000E+13  0.1000E+13
 72                   46     -1 -0.1000E+13  0.1000E+13
 73                   47     -1 -0.1000E+13  0.1000E+13
 74                   48     -1 -0.1000E+13  0.1000E+13
 75                   49     -1 -0.1000E+13  0.1000E+13
 76                   50     -1 -0.1000E+13  0.1000E+13
 77                   51     -1 -0.1000E+13  0.1000E+13
-------------------------------------------------------

-------------------------------------------------------------

       For each scalar, the number indicates it's rank
         in the list of all scalars. User scalars are placed
         first, from 1 to NSCAUS. Specific physics scalars
         are placed at the end, from
         NSCAUS+1 to NSCAPP+NSCAUS=NSCAL.

       ISCACP = 0 or 1     2   (use Cp or not               )
       VISLS0 = >0             (Reference viscosity         )
       SIGMAS = >0             (Schmidt                     )
       RVARFL = >0             (Rf, cf variance dissipation )
       ICLVFL = 0, 1 or 2      (Variance clipping mode      )
       SCAMIN =                (Min authorized value        )
       SCAMAX =                (Max authorized value        )
        For variances, SCAMIN is ignored and SCAMAX is used
          only if ICLVFL = 2

------------------------------------------------------
   Scalar        THETSS    IVSEXT      THETVS
------------------------------------------------------
          1  0.5000E+00         0  0.0000E+00
          2  0.5000E+00         0  0.0000E+00
          3  0.5000E+00         0  0.0000E+00
          4  0.5000E+00         0  0.0000E+00
          5  0.5000E+00         0  0.0000E+00
          6  0.5000E+00         0  0.0000E+00
          7  0.5000E+00         0  0.0000E+00
          8  0.5000E+00         0  0.0000E+00
          9  0.5000E+00         0  0.0000E+00
         10  0.5000E+00         0  0.0000E+00
         11  0.5000E+00         0  0.0000E+00
         12  0.5000E+00         0  0.0000E+00
         13  0.5000E+00         0  0.0000E+00
         14  0.5000E+00         0  0.0000E+00
         15  0.5000E+00         0  0.0000E+00
         16  0.5000E+00         0  0.0000E+00
         17  0.5000E+00         0  0.0000E+00
         18  0.5000E+00         0  0.0000E+00
         19  0.5000E+00         0  0.0000E+00
         20  0.5000E+00         0  0.0000E+00
         21  0.5000E+00         0  0.0000E+00
         22  0.5000E+00         0  0.0000E+00
         23  0.5000E+00         0  0.0000E+00
         24  0.5000E+00         0  0.0000E+00
         25  0.5000E+00         0  0.0000E+00
         26  0.5000E+00         0  0.0000E+00
         27  0.5000E+00         0  0.0000E+00
         28  0.5000E+00         0  0.0000E+00
         29  0.5000E+00         0  0.0000E+00
         30  0.5000E+00         0  0.0000E+00
         31  0.5000E+00         0  0.0000E+00
         32  0.5000E+00         0  0.0000E+00
         33  0.5000E+00         0  0.0000E+00
         34  0.5000E+00         0  0.0000E+00
         35  0.5000E+00         0  0.0000E+00
         36  0.5000E+00         0  0.0000E+00
         37  0.5000E+00         0  0.0000E+00
         38  0.5000E+00         0  0.0000E+00
         39  0.5000E+00         0  0.0000E+00
         40  0.5000E+00         0  0.0000E+00
         41  0.5000E+00         0  0.0000E+00
         42  0.5000E+00         0  0.0000E+00
         43  0.5000E+00         0  0.0000E+00
         44  0.5000E+00         0  0.0000E+00
         45  0.5000E+00         0  0.0000E+00
         46  0.5000E+00         0  0.0000E+00
         47  0.5000E+00         0  0.0000E+00
         48  0.5000E+00         0  0.0000E+00
         49  0.5000E+00         0  0.0000E+00
         50  0.5000E+00         0  0.0000E+00
         51  0.5000E+00         0  0.0000E+00
------------------------------------------------------

       THETSS =                (theta for source terms      )
                               ((1+theta).new-theta.old     )
       IVSEXT =                (extrap. total viscosity     )
                               (0: explicit                 )
                               (1: n+thetvs with thetvs=1/2 )
                               (2: n+thetvs with thetvs=1   )
       THETVS =                (theta for scalar diffusivity
                               ((1+theta).new-theta.old     )


 -----------------------------------------------------------


 ** CALCULATION MANAGEMENT
    ----------------------

 --- Restarted calculation
       ISUITE =              1 (1: restarted calculation    )
       ILEAUX =              1 (1: read  restart/auxiliary  )
       IECAUX =              1 (1: write checkpoint/auxiliary)


 --- Calculation time
     The numbering of time steps and the measure of simulated
       physical time are absolute values, and not values
       relative to the current calculation.

       INPDT0 =              0 (1: 0 time step calcuation   )
       NTMABS =        4500000 (Final time step required    )

 --- CPU time margin
       TMARUS =   -0.10000E+01 (CPU time margin before stop )


 -----------------------------------------------------------


 ** INPUT-OUTPUT
    ------------

 --- Restart file
       NTSUIT =              0 (Checkpoint frequency )

 --- Probe history files
       NTHIST =              1 (Output frequency     )
       FRHIST =     -.10000E+01 (Output frequency (s) )
         --           --                --

 --- Log files
       NTLIST =           1000 (Output frequency     )

       Number Name                IWARNI verbosity level
                                      (-999: not applicable)

 Velocity                       0
 Pressure                       0
 diric                          0
 neuma                          0
 11                             0
 12                             0
 13                             0
 14                             0
 15                             0
 16                             0
 17                             0
 21                             0
 22                             0
 23                             0
 24                             0
 25                             0
 26                             0
 27                             0
 31                             0
 32                             0
 33                             0
 34                             0
 35                             0
 36                             0
 37                             0
 41                             0
 42                             0
 43                             0
 44                             0
 45                             0
 46                             0
 47                             0
 51                             0
 52                             0
 53                             0
 54                             0
 55                             0
 56                             0
 57                             0
 61                             0
 62                             0
 63                             0
 64                             0
 65                             0
 66                             0
 67                             0
 71                             0
 72                             0
 73                             0
 74                             0
 75                             0
 76                             0
 77                             0
 Laminar Viscosit            -999
 Turb Viscosity              -999
 CFL                         -999
 Fourier Number              -999
 Total Pressure              -999
 11 Diff                     -999
 12 Diff                     -999
 13 Diff                     -999
 14 Diff                     -999
 15 Diff                     -999
 16 Diff                     -999
 17 Diff                     -999
 21 Diff                     -999
 22 Diff                     -999
 23 Diff                     -999
 24 Diff                     -999
 25 Diff                     -999
 26 Diff                     -999
 27 Diff                     -999
 31 Diff                     -999
 32 Diff                     -999
 33 Diff                     -999
 34 Diff                     -999
 35 Diff                     -999
 36 Diff                     -999
 37 Diff                     -999
 41 Diff                     -999
 42 Diff                     -999
 43 Diff                     -999
 44 Diff                     -999
 45 Diff                     -999
 46 Diff                     -999
 47 Diff                     -999
 51 Diff                     -999
 52 Diff                     -999
 53 Diff                     -999
 54 Diff                     -999
 55 Diff                     -999
 56 Diff                     -999
 57 Diff                     -999
 61 Diff                     -999
 62 Diff                     -999
 63 Diff                     -999
 64 Diff                     -999
 65 Diff                     -999
 66 Diff                     -999
 67 Diff                     -999
 71 Diff                     -999
 72 Diff                     -999
 73 Diff                     -999
 74 Diff                     -999
 75 Diff                     -999
 76 Diff                     -999
 77 Diff                     -999
 11 Rho                      -999
 12 Rho                      -999
 13 Rho                      -999
 14 Rho                      -999
 15 Rho                      -999
 16 Rho                      -999
 17 Rho                      -999
 21 Rho                      -999
 22 Rho                      -999
 23 Rho                      -999
 24 Rho                      -999
 25 Rho                      -999
 26 Rho                      -999
 27 Rho                      -999
 31 Rho                      -999
 32 Rho                      -999
 33 Rho                      -999
 34 Rho                      -999
 35 Rho                      -999
 36 Rho                      -999
 37 Rho                      -999
 41 Rho                      -999
 42 Rho                      -999
 43 Rho                      -999
 44 Rho                      -999
 45 Rho                      -999
 46 Rho                      -999
 47 Rho                      -999
 51 Rho                      -999
 52 Rho                      -999
 53 Rho                      -999
 54 Rho                      -999
 55 Rho                      -999
 56 Rho                      -999
 57 Rho                      -999
 61 Rho                      -999
 62 Rho                      -999
 63 Rho                      -999
 64 Rho                      -999
 65 Rho                      -999
 66 Rho                      -999
 67 Rho                      -999
 71 Rho                      -999
 72 Rho                      -999
 73 Rho                      -999
 74 Rho                      -999
 75 Rho                      -999
 76 Rho                      -999
 77 Rho                      -999
 Yplus                       -999
 mu_t                        -999
 u_mean                      -999
 rij                         -999
 diric_mean                  -999
 diric_variance              -999
 diric_flux                  -999
 neuma_mean                  -999
 neuma_variance              -999
 neuma_flux                  -999
 11_mean                     -999
 11_variance                 -999
 11_flux                     -999
 12_mean                     -999
 12_variance                 -999
 12_flux                     -999
 13_mean                     -999
 13_variance                 -999
 13_flux                     -999
 14_mean                     -999
 14_variance                 -999
 14_flux                     -999
 15_mean                     -999
 15_variance                 -999
 15_flux                     -999
 16_mean                     -999
 16_variance                 -999
 16_flux                     -999
 17_mean                     -999
 17_variance                 -999
 17_flux                     -999
 21_mean                     -999
 21_variance                 -999
 21_flux                     -999
 22_mean                     -999
 22_variance                 -999
 22_flux                     -999
 23_mean                     -999
 23_variance                 -999
 23_flux                     -999
 24_mean                     -999
 24_variance                 -999
 24_flux                     -999
 25_mean                     -999
 25_variance                 -999
 25_flux                     -999
 26_mean                     -999
 26_variance                 -999
 26_flux                     -999
 27_mean                     -999
 27_variance                 -999
 27_flux                     -999
 31_mean                     -999
 31_variance                 -999
 31_flux                     -999
 32_mean                     -999
 32_variance                 -999
 32_flux                     -999
 33_mean                     -999
 33_variance                 -999
 33_flux                     -999
 34_mean                     -999
 34_variance                 -999
 34_flux                     -999
 35_mean                     -999
 35_variance                 -999
 35_flux                     -999
 36_mean                     -999
 36_variance                 -999
 36_flux                     -999
 37_mean                     -999
 37_variance                 -999
 37_flux                     -999
 41_mean                     -999
 41_variance                 -999
 41_flux                     -999
 42_mean                     -999
 42_variance                 -999
 42_flux                     -999
 43_mean                     -999
 43_variance                 -999
 43_flux                     -999
 44_mean                     -999
 44_variance                 -999
 44_flux                     -999
 45_mean                     -999
 45_variance                 -999
 45_flux                     -999
 46_mean                     -999
 46_variance                 -999
 46_flux                     -999
 47_mean                     -999
 47_variance                 -999
 47_flux                     -999
 51_mean                     -999
 51_variance                 -999
 51_flux                     -999
 52_mean                     -999
 52_variance                 -999
 52_flux                     -999
 53_mean                     -999
 53_variance                 -999
 53_flux                     -999
 54_mean                     -999
 54_variance                 -999
 54_flux                     -999
 55_mean                     -999
 55_variance                 -999
 55_flux                     -999
 56_mean                     -999
 56_variance                 -999
 56_flux                     -999
 57_mean                     -999
 57_variance                 -999
 57_flux                     -999
 61_mean                     -999
 61_variance                 -999
 61_flux                     -999
 62_mean                     -999
 62_variance                 -999
 62_flux                     -999
 63_mean                     -999
 63_variance                 -999
 63_flux                     -999
 64_mean                     -999
 64_variance                 -999
 64_flux                     -999
 65_mean                     -999
 65_variance                 -999
 65_flux                     -999
 66_mean                     -999
 66_variance                 -999
 66_flux                     -999
 67_mean                     -999
 67_variance                 -999
 67_flux                     -999
 71_mean                     -999
 71_variance                 -999
 71_flux                     -999
 72_mean                     -999
 72_variance                 -999
 72_flux                     -999
 73_mean                     -999
 73_variance                 -999
 73_flux                     -999
 74_mean                     -999
 74_variance                 -999
 74_flux                     -999
 75_mean                     -999
 75_variance                 -999
 75_flux                     -999
 76_mean                     -999
 76_variance                 -999
 76_flux                     -999
 77_mean                     -999
 77_variance                 -999
 77_flux                     -999
 u_grad                      -999
 u_diss                      -999
 mu_t_u_grad                 -999
 mu_t_u_diss                 -999
 diric_grad                  -999
 diric_diss                  -999
 diric_mu_t_t_gra            -999
 diric_mu_t_t_dis            -999
 neuma_grad                  -999
 neuma_diss                  -999
 neuma_mu_t_t_gra            -999
 neuma_mu_t_t_dis            -999
 11_grad                     -999
 11_diss                     -999
 11_mu_t_t_grad              -999
 11_mu_t_t_diss              -999
 12_grad                     -999
 12_diss                     -999
 12_mu_t_t_grad              -999
 12_mu_t_t_diss              -999
 13_grad                     -999
 13_diss                     -999
 13_mu_t_t_grad              -999
 13_mu_t_t_diss              -999
 14_grad                     -999
 14_diss                     -999
 14_mu_t_t_grad              -999
 14_mu_t_t_diss              -999
 15_grad                     -999
 15_diss                     -999
 15_mu_t_t_grad              -999
 15_mu_t_t_diss              -999
 16_grad                     -999
 16_diss                     -999
 16_mu_t_t_grad              -999
 16_mu_t_t_diss              -999
 17_grad                     -999
 17_diss                     -999
 17_mu_t_t_grad              -999
 17_mu_t_t_diss              -999
 21_grad                     -999
 21_diss                     -999
 21_mu_t_t_grad              -999
 21_mu_t_t_diss              -999
 22_grad                     -999
 22_diss                     -999
 22_mu_t_t_grad              -999
 22_mu_t_t_diss              -999
 23_grad                     -999
 23_diss                     -999
 23_mu_t_t_grad              -999
 23_mu_t_t_diss              -999
 24_grad                     -999
 24_diss                     -999
 24_mu_t_t_grad              -999
 24_mu_t_t_diss              -999
 25_grad                     -999
 25_diss                     -999
 25_mu_t_t_grad              -999
 25_mu_t_t_diss              -999
 26_grad                     -999
 26_diss                     -999
 26_mu_t_t_grad              -999
 26_mu_t_t_diss              -999
 27_grad                     -999
 27_diss                     -999
 27_mu_t_t_grad              -999
 27_mu_t_t_diss              -999
 31_grad                     -999
 31_diss                     -999
 31_mu_t_t_grad              -999
 31_mu_t_t_diss              -999
 32_grad                     -999
 32_diss                     -999
 32_mu_t_t_grad              -999
 32_mu_t_t_diss              -999
 33_grad                     -999
 33_diss                     -999
 33_mu_t_t_grad              -999
 33_mu_t_t_diss              -999
 34_grad                     -999
 34_diss                     -999
 34_mu_t_t_grad              -999
 34_mu_t_t_diss              -999
 35_grad                     -999
 35_diss                     -999
 35_mu_t_t_grad              -999
 35_mu_t_t_diss              -999
 36_grad                     -999
 36_diss                     -999
 36_mu_t_t_grad              -999
 36_mu_t_t_diss              -999
 37_grad                     -999
 37_diss                     -999
 37_mu_t_t_grad              -999
 37_mu_t_t_diss              -999
 41_grad                     -999
 41_diss                     -999
 41_mu_t_t_grad              -999
 41_mu_t_t_diss              -999
 42_grad                     -999
 42_diss                     -999
 42_mu_t_t_grad              -999
 42_mu_t_t_diss              -999
 43_grad                     -999
 43_diss                     -999
 43_mu_t_t_grad              -999
 43_mu_t_t_diss              -999
 44_grad                     -999
 44_diss                     -999
 44_mu_t_t_grad              -999
 44_mu_t_t_diss              -999
 45_grad                     -999
 45_diss                     -999
 45_mu_t_t_grad              -999
 45_mu_t_t_diss              -999
 46_grad                     -999
 46_diss                     -999
 46_mu_t_t_grad              -999
 46_mu_t_t_diss              -999
 47_grad                     -999
 47_diss                     -999
 47_mu_t_t_grad              -999
 47_mu_t_t_diss              -999
 51_grad                     -999
 51_diss                     -999
 51_mu_t_t_grad              -999
 51_mu_t_t_diss              -999
 52_grad                     -999
 52_diss                     -999
 52_mu_t_t_grad              -999
 52_mu_t_t_diss              -999
 53_grad                     -999
 53_diss                     -999
 53_mu_t_t_grad              -999
 53_mu_t_t_diss              -999
 54_grad                     -999
 54_diss                     -999
 54_mu_t_t_grad              -999
 54_mu_t_t_diss              -999
 55_grad                     -999
 55_diss                     -999
 55_mu_t_t_grad              -999
 55_mu_t_t_diss              -999
 56_grad                     -999
 56_diss                     -999
 56_mu_t_t_grad              -999
 56_mu_t_t_diss              -999
 57_grad                     -999
 57_diss                     -999
 57_mu_t_t_grad              -999
 57_mu_t_t_diss              -999
 61_grad                     -999
 61_diss                     -999
 61_mu_t_t_grad              -999
 61_mu_t_t_diss              -999
 62_grad                     -999
 62_diss                     -999
 62_mu_t_t_grad              -999
 62_mu_t_t_diss              -999
 63_grad                     -999
 63_diss                     -999
 63_mu_t_t_grad              -999
 63_mu_t_t_diss              -999
 64_grad                     -999
 64_diss                     -999
 64_mu_t_t_grad              -999
 64_mu_t_t_diss              -999
 65_grad                     -999
 65_diss                     -999
 65_mu_t_t_grad              -999
 65_mu_t_t_diss              -999
 66_grad                     -999
 66_diss                     -999
 66_mu_t_t_grad              -999
 66_mu_t_t_diss              -999
 67_grad                     -999
 67_diss                     -999
 67_mu_t_t_grad              -999
 67_mu_t_t_diss              -999
 71_grad                     -999
 71_diss                     -999
 71_mu_t_t_grad              -999
 71_mu_t_t_diss              -999
 72_grad                     -999
 72_diss                     -999
 72_mu_t_t_grad              -999
 72_mu_t_t_diss              -999
 73_grad                     -999
 73_diss                     -999
 73_mu_t_t_grad              -999
 73_mu_t_t_diss              -999
 74_grad                     -999
 74_diss                     -999
 74_mu_t_t_grad              -999
 74_mu_t_t_diss              -999
 75_grad                     -999
 75_diss                     -999
 75_mu_t_t_grad              -999
 75_mu_t_t_diss              -999
 76_grad                     -999
 76_diss                     -999
 76_mu_t_t_grad              -999
 76_mu_t_t_diss              -999
 77_grad                     -999
 77_diss                     -999
 77_mu_t_t_grad              -999
 77_mu_t_t_diss              -999
         --           --                --

 --- Additional post-processing variables (ipstdv)
       ipstfo =              1 (Force exerted by the
                                     fluid on the boundary)
       ipstyp =              1 (y+ at boundary)
       ipsttp =              0 (T+ at boundary)
       ipstft =              1 (Thermal flux   at boundary)
       ipstnu =              0 (Dimensionless thermal
                                          flux at boundary)


 -----------------------------------------------------------


 ** ALE METHOD (MOVING MESH)
    -----------

       IALE   =              0 (1: activated                )
       NALINF =              0 (Fluid initialization
                                                  iterations)
       IFLXMW =              0 (ALE mass flux computation
                                0: thanks to vertices
                                1: thanks to mesh velocity)


 -----------------------------------------------------------


Postprocessing output writers:
------------------------------

  -1: name: results
      directory: postprocessing
      format: EnSight Gold
      options: 
      time dependency: fixed mesh
      output: every 500000 time steps and at calculation end

  -5: name: 
      directory: monitoring
      format: time_plot
      options: 
      time dependency: fixed mesh
      output: every 1 time steps

  -6: name: 
      directory: profiles
      format: plot
      options: 
      time dependency: fixed mesh
      output: at calculation end


 Reading file:        mesh_input
 Finished reading:    mesh_input
 No "partition_input/domain_number_168" file available;

 ----------------------------------------------------------

 Ignoring periodicity for graph-based partitioning.

 Partitioning 957906 cells to 168 domains on 168 ranks
   (SCOTCH_dgraphPart).

  wall-clock time: 11.735034 s

  Number of cells per domain (histogramm):
[...]
m  54_mu_t_t_grad[Y]        -8.8479e-06      8.8295e-06     -7.5768e-10
m  54_mu_t_t_grad[Z]        -8.2008e-07      7.3748e-07     -3.5956e-10
m  54_mu_t_t_grad                   0      9.1654e-06      2.3111e-06
m  54_mu_t_t_diss                     0      5.2949e-06      1.2978e-06
m  55_grad[X]               -0.00037373      0.00038767     -1.9521e-09
m  55_grad[Y]                   -2.8435          2.8417      5.2213e-05
m  55_grad[Z]                -0.0092754       0.0091687     -2.3306e-07
m  55_grad                  0.0010647          2.8435          1.3499
m  55_diss[XX]                1.073e-09       0.0025671      0.00067021
m  55_diss[YY]               6.3418e-08         0.16498         0.02601
m  55_diss[ZZ]               6.5692e-07        0.028845       0.0063266
m  55_diss[XY]               -0.0099404       0.0099466      9.4623e-07
m  55_diss[YZ]               -0.0014215       0.0012435      5.4203e-06
m  55_diss[XZ]               -0.0002422      0.00023094     -5.1905e-07
m  55_mu_t_t_grad[X]        -1.4642e-09      3.4446e-06      8.3007e-07
m  55_mu_t_t_grad[Y]        -8.7707e-06      8.7408e-06     -8.7984e-10
m  55_mu_t_t_grad[Z]        -8.2364e-07      7.4098e-07     -3.7784e-10
m  55_mu_t_t_grad                   0      9.0907e-06      2.2951e-06
m  55_mu_t_t_diss                     0      5.3183e-06       1.298e-06
m  56_grad[X]               -0.00038545      0.00040507     -1.9441e-09
m  56_grad[Y]                   -7.0877          7.0861      5.0386e-05
m  56_grad[Z]                -0.0096822       0.0093979     -2.4252e-07
m  56_grad                  0.0010619          7.0877          3.1513
m  56_diss[XX]               1.2086e-09       0.0025753      0.00067753
m  56_diss[YY]               7.6343e-08         0.28372        0.029867
m  56_diss[ZZ]               7.2455e-07        0.029346       0.0068143
m  56_diss[XY]                -0.010052        0.010055      1.3599e-06
m  56_diss[YZ]                -0.002114       0.0018629      6.6226e-06
m  56_diss[XZ]              -0.00024205      0.00023395     -6.4301e-07
m  56_mu_t_t_grad[X]        -1.2503e-09      3.4445e-06      8.2937e-07
m  56_mu_t_t_grad[Y]        -8.6884e-06      8.6509e-06       -9.52e-10
m  56_mu_t_t_grad[Z]         -8.254e-07      7.4352e-07     -3.9233e-10
m  56_mu_t_t_grad                   0      9.0112e-06      2.2794e-06
m  56_mu_t_t_diss                     0      5.3475e-06      1.3004e-06
m  57_grad[X]               -0.00039471      0.00041259     -1.9298e-09
m  57_grad[Y]                   -14.159          14.158      4.9931e-05
m  57_grad[Z]                -0.0098674       0.0095405     -2.4578e-07
m  57_grad                  0.0010608          14.159           6.154
m  57_diss[XX]               1.2573e-09         0.00258      0.00068211
m  57_diss[YY]               8.1454e-08         0.35498         0.03234
m  57_diss[ZZ]               7.4802e-07        0.029661       0.0070732
m  57_diss[XY]                -0.010114        0.010116      1.5701e-06
m  57_diss[YZ]               -0.0025923       0.0022673      7.1929e-06
m  57_diss[XZ]              -0.00024198      0.00023564     -7.0769e-07
m  57_mu_t_t_grad[X]        -1.2306e-09      3.4446e-06       8.291e-07
m  57_mu_t_t_grad[Y]        -8.6489e-06      8.6092e-06     -9.7105e-10
m  57_mu_t_t_grad[Z]        -8.2571e-07       7.445e-07     -3.9831e-10
m  57_mu_t_t_grad                   0      8.9731e-06      2.2723e-06
m  57_mu_t_t_diss                     0      5.3654e-06      1.3023e-06
m  61_grad[X]               -0.00034236      0.00031844     -1.4663e-09
m  61_grad[Y]                   -1.0247          1.0214      0.00010416
m  61_grad[Z]                -0.0074298       0.0077522     -1.4388e-07
m  61_grad                  0.0010751          1.0247         0.24459
m  61_diss[XX]               6.8454e-11       0.0025902      0.00066532
m  61_diss[YY]               3.0036e-09         0.16674        0.024402
m  61_diss[ZZ]                2.553e-08        0.027823       0.0053343
m  61_diss[XY]               -0.0097869       0.0098075     -9.7554e-07
m  61_diss[YZ]               -0.0013684       0.0013699      1.9013e-06
m  61_diss[XZ]              -0.00023918      0.00022491     -2.6872e-07
m  61_mu_t_t_grad[X]        -2.1089e-09      3.4461e-06      8.3472e-07
m  61_mu_t_t_grad[Y]        -9.0281e-06      9.0583e-06      2.0081e-10
m  61_mu_t_t_grad[Z]        -8.0261e-07      7.1782e-07     -2.8788e-10
m  61_mu_t_t_grad                   0      9.3415e-06      2.3554e-06
m  61_mu_t_t_diss                     0      5.3337e-06      1.3091e-06
m  62_grad[X]               -0.00034733      0.00033267     -1.6908e-09
m  62_grad[Y]                   -1.0198          1.0174      0.00010074
m  62_grad[Z]                -0.0078832       0.0081236     -1.7493e-07
m  62_grad                  0.0010744          1.0198         0.33977
m  62_diss[XX]               1.4446e-10       0.0025834      0.00066499
m  62_diss[YY]                7.289e-09          0.1516        0.023955
m  62_diss[ZZ]               5.6255e-08         0.02791       0.0054116
m  62_diss[XY]               -0.0097977       0.0098117     -6.1044e-07
m  62_diss[YZ]               -0.0013922       0.0013023      2.3408e-06
m  62_diss[XZ]              -0.00024127      0.00022567     -2.8581e-07
m  62_mu_t_t_grad[X]        -2.0386e-09      3.4495e-06      8.3417e-07
m  62_mu_t_t_grad[Y]        -9.0045e-06      9.0192e-06     -4.6581e-11
m  62_mu_t_t_grad[Z]        -8.1035e-07      7.2663e-07     -3.0484e-10
m  62_mu_t_t_grad                   0      9.3183e-06      2.3472e-06
m  62_mu_t_t_diss                     0       5.319e-06      1.3067e-06
m  63_grad[X]               -0.00035458      0.00035844     -1.8501e-09
m  63_grad[Y]                   -1.1327          1.1315      8.8755e-05
m  63_grad[Z]                -0.0086176       0.0086976     -2.1046e-07
m  63_grad                  0.0010716          1.1328         0.62511
m  63_diss[XX]               2.4178e-10       0.0025745      0.00066532
m  63_diss[YY]               1.6567e-08         0.13209        0.024231
m  63_diss[ZZ]               1.1095e-07        0.028226       0.0056364
m  63_diss[XY]                -0.009832       0.0098403      3.2347e-08
m  63_diss[YZ]               -0.0014039       0.0012382      3.3698e-06
m  63_diss[XZ]              -0.00024316      0.00022746      -3.375e-07
m  63_mu_t_t_grad[X]         -1.867e-09      3.4513e-06      8.3299e-07
m  63_mu_t_t_grad[Y]        -8.9357e-06      8.9293e-06     -4.5855e-10
m  63_mu_t_t_grad[Z]        -8.1966e-07      7.3638e-07      -3.373e-10
m  63_mu_t_t_grad                   0      9.2516e-06      2.3297e-06
m  63_mu_t_t_diss                     0       5.306e-06       1.303e-06
m  64_grad[X]               -0.00036629      0.00038208     -1.9007e-09
m  64_grad[Y]                   -2.2553          2.2542      8.2327e-05
m  64_grad[Z]                -0.0091128       0.0090653     -2.2807e-07
m  64_grad                  0.0010681          2.2553          1.1003
m  64_diss[XX]               2.8148e-10       0.0025703      0.00066717
m  64_diss[YY]               2.3714e-08         0.19214        0.026293
m  64_diss[ZZ]               1.3479e-07        0.028565       0.0059259
m  64_diss[XY]               -0.0098872       0.0098932      4.9956e-07
m  64_diss[YZ]               -0.0013784       0.0012425      4.5113e-06
m  64_diss[XZ]              -0.00024343      0.00022943     -4.0997e-07
m  64_mu_t_t_grad[X]        -1.6732e-09      3.4502e-06      8.3186e-07
m  64_mu_t_t_grad[Y]        -8.8583e-06      8.8373e-06     -6.9748e-10
m  64_mu_t_t_grad[Z]        -8.2425e-07      7.4085e-07     -3.6197e-10
m  64_mu_t_t_grad                   0      9.1765e-06      2.3128e-06
m  64_mu_t_t_diss                     0      5.3163e-06      1.3008e-06
m  65_grad[X]               -0.00037667      0.00039842      -1.912e-09
m  65_grad[Y]                   -4.4953          4.4943      7.8788e-05
m  65_grad[Z]                 -0.009463       0.0093038     -2.3815e-07
m  65_grad                  0.0010649          4.4953          2.0503
m  65_diss[XX]               2.9012e-10       0.0025739      0.00067082
m  65_diss[YY]               2.8888e-08         0.36524        0.030399
m  65_diss[ZZ]               1.4677e-07        0.028954         0.00628
m  65_diss[XY]               -0.0099649       0.0099693      9.2796e-07
m  65_diss[YZ]                -0.001888       0.0017834       5.732e-06
m  65_diss[XZ]              -0.00024306      0.00023164     -5.0211e-07
m  65_mu_t_t_grad[X]        -1.4591e-09      3.4484e-06      8.3079e-07
m  65_mu_t_t_grad[Y]        -8.7761e-06      8.7447e-06     -8.4783e-10
m  65_mu_t_t_grad[Z]        -8.2622e-07      7.4318e-07     -3.7999e-10
m  65_mu_t_t_grad                   0      9.0967e-06      2.2962e-06
m  65_mu_t_t_diss                     0      5.3339e-06      1.3004e-06
m  66_grad[X]               -0.00038767      0.00041117     -1.8941e-09
m  66_grad[Y]                   -11.207          11.206      7.6839e-05
m  66_grad[Z]                -0.0097868       0.0094753      -2.443e-07
m  66_grad                  0.0010621          11.207          4.8993
m  66_diss[XX]               2.8846e-10        0.002579      0.00067683
m  66_diss[YY]               3.2657e-08          0.6211        0.037023
m  66_diss[ZZ]               1.5316e-07        0.029409       0.0067082
m  66_diss[XY]                -0.010067         0.01007      1.3807e-06
m  66_diss[YZ]               -0.0030685       0.0027866      7.0112e-06
m  66_diss[XZ]              -0.00024249      0.00023437     -6.1316e-07
m  66_mu_t_t_grad[X]        -1.2567e-09      3.4465e-06      8.2977e-07
m  66_mu_t_t_grad[Y]        -8.6899e-06      8.6517e-06     -9.3869e-10
m  66_mu_t_t_grad[Z]         -8.266e-07       7.446e-07     -3.9366e-10
m  66_mu_t_t_grad                   0       9.013e-06      2.2799e-06
m  66_mu_t_t_diss                     0      5.3559e-06      1.3017e-06
m  67_grad[X]               -0.00039598      0.00041578     -1.8764e-09
m  67_grad[Y]                   -22.389          22.388      7.6319e-05
m  67_grad[Z]                -0.0099233       0.0095886     -2.4629e-07
m  67_grad                   0.001061          22.389          9.6473
m  67_diss[XX]               2.8614e-10       0.0025821      0.00068055
m  67_diss[YY]               3.4025e-08         0.77188        0.041057
m  67_diss[ZZ]                1.549e-07        0.029699       0.0069315
m  67_diss[XY]                -0.010123        0.010124      1.6068e-06
m  67_diss[YZ]               -0.0037321       0.0033593      7.6137e-06
m  67_diss[XZ]              -0.00024222      0.00023588        -6.7e-07
m  67_mu_t_t_grad[X]        -1.2346e-09      3.4458e-06      8.2933e-07
m  67_mu_t_t_grad[Y]        -8.6493e-06      8.6093e-06     -9.6425e-10
m  67_mu_t_t_grad[Z]        -8.2634e-07      7.4508e-07     -3.9909e-10
m  67_mu_t_t_grad                   0      8.9737e-06      2.2725e-06
m  67_mu_t_t_diss                     0      5.3701e-06      1.3031e-06
m  71_grad[X]               -0.00034553      0.00032558      -1.481e-09
m  71_grad[Y]                   -1.0231          1.0203      9.6095e-05
m  71_grad[Z]                -0.0076607       0.0079189     -1.5631e-07
m  71_grad                  0.0010769          1.0231         0.28426
m  71_diss[XX]               1.6782e-11       0.0025913      0.00066578
m  71_diss[YY]               1.1414e-09         0.16625        0.024491
m  71_diss[ZZ]               5.7967e-09        0.027844       0.0053394
m  71_diss[XY]               -0.0097926       0.0098149     -7.7782e-07
m  71_diss[YZ]               -0.0013709       0.0013538      1.8878e-06
m  71_diss[XZ]              -0.00024021      0.00022549     -2.6968e-07
m  71_mu_t_t_grad[X]        -2.1102e-09      3.4494e-06      8.3496e-07
m  71_mu_t_t_grad[Y]        -9.0388e-06      9.0634e-06      4.7043e-11
m  71_mu_t_t_grad[Z]        -8.0684e-07      7.2132e-07     -2.8705e-10
m  71_mu_t_t_grad                   0      9.3518e-06      2.3559e-06
m  71_mu_t_t_diss                     0      5.3365e-06      1.3098e-06
m  72_grad[X]               -0.00035038      0.00034078     -1.6743e-09
m  72_grad[Y]                   -1.0184          1.0169       0.0001032
m  72_grad[Z]                -0.0081682       0.0082987      -1.864e-07
m  72_grad                  0.0010752          1.0184         0.41908
m  72_diss[XX]               2.9018e-11       0.0025859      0.00066576
m  72_diss[YY]               2.8141e-09         0.15085         0.02425
m  72_diss[ZZ]               1.1824e-08        0.027953       0.0054188
m  72_diss[XY]               -0.0098087       0.0098222     -5.3463e-07
m  72_diss[YZ]               -0.0013977         0.00129      2.3387e-06
m  72_diss[XZ]              -0.00024236      0.00022633     -2.8634e-07
m  72_mu_t_t_grad[X]        -2.0407e-09      3.4531e-06      8.3458e-07
m  72_mu_t_t_grad[Y]         -9.015e-06      9.0257e-06     -1.0197e-10
m  72_mu_t_t_grad[Z]        -8.1454e-07      7.3011e-07     -3.0453e-10
m  72_mu_t_t_grad                   0      9.3293e-06       2.348e-06
m  72_mu_t_t_diss                     0      5.3248e-06       1.308e-06
m  73_grad[X]               -0.00035831      0.00037027     -1.8041e-09
m  73_grad[Y]                   -1.6009          1.6002      0.00010332
m  73_grad[Z]                -0.0088765       0.0088782     -2.1751e-07
m  73_grad                   0.001072          1.6009         0.82318
m  73_diss[XX]               4.5014e-11       0.0025789       0.0006665
m  73_diss[YY]               6.2842e-09         0.14394        0.025401
m  73_diss[ZZ]               2.0992e-08        0.028317         0.00564
m  73_diss[XY]               -0.0098516       0.0098584      2.5859e-08
m  73_diss[YZ]               -0.0014113       0.0012366      3.3934e-06
m  73_diss[XZ]              -0.00024416      0.00022816     -3.3564e-07
m  73_mu_t_t_grad[X]         -1.869e-09      3.4553e-06      8.3364e-07
m  73_mu_t_t_grad[Y]        -8.9439e-06      8.9354e-06     -4.4841e-10
m  73_mu_t_t_grad[Z]         -8.232e-07      7.3913e-07     -3.3796e-10
m  73_mu_t_t_grad                   0      9.2604e-06      2.3308e-06
m  73_mu_t_t_diss                     0      5.3158e-06       1.305e-06
m  74_grad[X]               -0.00036895      0.00039199     -1.8413e-09
m  74_grad[Y]                   -3.1894           3.189      0.00010138
m  74_grad[Z]                -0.0092846       0.0091896     -2.3165e-07
m  74_grad                  0.0010686          3.1894           1.496
m  74_diss[XX]               5.4349e-11       0.0025761      0.00066838
m  74_diss[YY]               8.8114e-09         0.33916        0.028951
m  74_diss[ZZ]               2.6142e-08        0.028655       0.0059149
m  74_diss[XY]               -0.0099104       0.0099154      4.9039e-07
m  74_diss[YZ]               -0.0013912          0.0014      4.5657e-06
m  74_diss[XZ]              -0.00024428      0.00023009      -4.042e-07
m  74_mu_t_t_grad[X]         -1.674e-09       3.454e-06      8.3259e-07
m  74_mu_t_t_grad[Y]         -8.864e-06       8.842e-06     -6.8335e-10
m  74_mu_t_t_grad[Z]        -8.2674e-07       7.429e-07     -3.6306e-10
m  74_mu_t_t_grad                   0      9.1827e-06      2.3139e-06
m  74_mu_t_t_diss                     0      5.3309e-06      1.3031e-06
m  75_grad[X]               -0.00037847      0.00040479     -1.8448e-09
m  75_grad[Y]                   -6.3588          6.3587       0.0001001
m  75_grad[Z]                -0.0095871       0.0093797     -2.3925e-07
m  75_grad                  0.0010655          6.3588          2.8403
m  75_diss[XX]               5.7992e-11       0.0025791      0.00067165
m  75_diss[YY]               1.0568e-08         0.63969        0.035242
m  75_diss[ZZ]               2.9194e-08        0.029032       0.0062439
m  75_diss[XY]               -0.0099863       0.0099903      9.2867e-07
m  75_diss[YZ]               -0.0024161       0.0023116      5.8238e-06
m  75_diss[XZ]               -0.0002437       0.0002322     -4.9055e-07
m  75_mu_t_t_grad[X]        -1.4587e-09      3.4515e-06      8.3143e-07
m  75_mu_t_t_grad[Y]        -8.7795e-06      8.7477e-06      -8.379e-10
m  75_mu_t_t_grad[Z]        -8.2783e-07      7.4459e-07     -3.8108e-10
m  75_mu_t_t_grad                   0      9.1005e-06      2.2972e-06
m  75_mu_t_t_diss                     0      5.3455e-06      1.3024e-06
m  76_grad[X]               -0.00038898      0.00041434     -1.8222e-09
m  76_grad[Y]                   -15.853          15.853      9.9462e-05
m  76_grad[Z]                -0.0098441       0.0095195     -2.4356e-07
m  76_grad                  0.0010625          15.853          6.8705
m  76_diss[XX]               5.9924e-11       0.0025821      0.00067674
m  76_diss[YY]               1.1509e-08          1.0781        0.044859
m  76_diss[ZZ]               3.1141e-08        0.029459       0.0066347
m  76_diss[XY]                -0.010081        0.010084      1.3932e-06
m  76_diss[YZ]                -0.003886       0.0036729      7.1436e-06
m  76_diss[XZ]              -0.00024284      0.00023471      -5.934e-07
m  76_mu_t_t_grad[X]        -1.2649e-09      3.4484e-06      8.3017e-07
m  76_mu_t_t_grad[Y]        -8.6913e-06      8.6531e-06     -9.3379e-10
m  76_mu_t_t_grad[Z]        -8.2739e-07      7.4533e-07     -3.9439e-10
m  76_mu_t_t_grad                   0      9.0147e-06      2.2804e-06
m  76_mu_t_t_diss                     0      5.3627e-06       1.303e-06
m  77_grad[X]               -0.00040328      0.00042064     -1.8698e-09
m  77_grad[Y]                   -31.822          31.822      9.7379e-05
m  77_grad[Z]                 -0.009947       0.0097271     -2.4431e-07
m  77_grad                 0.00092261          31.822          13.631
m  77_diss[XX]               6.1046e-11        0.002691      0.00071006
m  77_diss[YY]               1.1292e-08          1.3326        0.051499
m  77_diss[ZZ]               3.1426e-08        0.030332        0.006924
m  77_diss[XY]                -0.010737        0.010736      1.6532e-06
m  77_diss[YZ]               -0.0048066        0.004539      7.5934e-06
m  77_diss[XZ]              -0.00025268      0.00024906     -6.1116e-07
m  77_mu_t_t_grad[X]        -1.1709e-09      3.3997e-06      8.1105e-07
m  77_mu_t_t_grad[Y]        -8.3918e-06      8.3234e-06     -8.2723e-10
m  77_mu_t_t_grad[Z]        -8.2864e-07      7.3947e-07     -3.5471e-10
m  77_mu_t_t_grad                   0      8.7299e-06      2.1236e-06
m  77_mu_t_t_diss                     0      5.5574e-06       1.345e-06

  ** Computed fields on boundary_faces
     ---------------------------------

   field         minimum         maximum        set mean    spatial mean
-  -----  --------------  --------------  --------------  --------------
v  Yplus               0         0.93671         0.16381         0.16382


  ** Computed values on cells
     ------------------------

   criterion               minimum         maximum        set mean    spatial mean
   ---------------  --------------  --------------  --------------  --------------
   Courant/Fourier       0.0036444         0.73388          0.1527         0.13362


  ** Temporal moment accumulated weights
     -----------------------------------

   id   n it.             value
   ---- -------- --------------
   0    999991           9999.9


===============================================================



                 FINAL STAGE OF THE CALCULATION              
                 ==============================              


 =========================================================== 





 =========================================================== 




                      END OF CALCULATION                     
                      ==================                     


===============================================================

 Destroying structures and ending computation
