command: 
 ./cs_solver

***************************************************************

                                  (R)
                      Code_Saturne

                      Version 5.0.3-patch


  Copyright (C) 1998-2017 EDF S.A., France

  revision svn10438-git656943f670811e1682afe1623c2f417eb6a1eb11
  build Tue 08 Aug 2017 08:08:43 AM CEST
  MPI version 3.0 (Open MPI 1.8.5)


  The Code_Saturne CFD tool  is free software;
  you can redistribute it and/or modify it under the terms
  of the GNU General Public License as published by the
  Free Software Foundation; either version 2 of the License,
  or (at your option) any later version.

  The Code_Saturne CFD tool is distributed in the hope that
  it will be useful, but WITHOUT ANY WARRANTY; without even
  the implied warranty of MERCHANTABILITY or FITNESS FOR A
  PARTICULAR PURPOSE.  See the GNU General Public License
  for more details.

***************************************************************


Local case configuration:

  Date:                Sun 13 Aug 2017 05:41:08 PM CEST
  System:              Linux 3.0.42-0.7-default
  Machine:             razor38
  Processor:           model name	: Intel(R) Xeon(R) CPU E5-2697 v3 @ 2.60GHz
  Memory:              258242 MB
  User:                flageul (Cedric Flageul)
  Directory:           /home/r4/flageul/saturne/1020_cht/wale/RESU/bigrun
  MPI ranks:           140 (appnum attribute: 0)
  I/O read method:     collective MPI-IO (explicit offsets)
  I/O write method:    collective MPI-IO (explicit offsets)
  I/O rank step:        1

  External libraries for partitioning:
    PT-SCOTCH 6.0.4

 Reading metadata from file: "mesh_input"

===============================================================

                   CALCULATION PREPARATION
                   =======================


 ===========================================================



  restart/auxiliary: section "time_moments:sizes" not present.
@
@@@@@@@@@@@@@@@@@@@@@@@@@@@@@@@@@@@@@@@@@@@@@@@@@@@@@@@@@@@@@
@
@ @@   WARNING :      WHEN READING INPUT DATA
@    =========
@   NON-STANDARD CHOICE WITH  TIME-SCHEME
@
@   ORDRE 2 EN TEMPS or the
@   THE VALUE RECOMMANDED FOR THE PARAMETER NSWRSM FOR
@        VARIABLEPressure         IS        10
@     NSWRSM IS NOW IMPOSED AS         5
@
@  computation will go on
@
@ Check the input data given through the User Interface
@   or in cs_user_parameters.f90.
@
@
@@@@@@@@@@@@@@@@@@@@@@@@@@@@@@@@@@@@@@@@@@@@@@@@@@@@@@@@@@@@@
@

@
@@@@@@@@@@@@@@@@@@@@@@@@@@@@@@@@@@@@@@@@@@@@@@@@@@@@@@@@@@@@@
@
@ @@   WARNING :      WHEN READING INPUT DATA
@    =========
@   NON-STANDARD CHOICE WITH  TIME-SCHEME
@
@   ORDRE 2 EN TEMPS or the
@   THE VALUE RECOMMANDED FOR THE PARAMETER NSWRSM FOR
@        VARIABLEPressure         IS        10
@     NSWRSM IS NOW IMPOSED AS         5
@
@  computation will go on
@
@ Check the input data given through the User Interface
@   or in cs_user_parameters.f90.
@
@
@@@@@@@@@@@@@@@@@@@@@@@@@@@@@@@@@@@@@@@@@@@@@@@@@@@@@@@@@@@@@
@

@
@@@@@@@@@@@@@@@@@@@@@@@@@@@@@@@@@@@@@@@@@@@@@@@@@@@@@@@@@@@@@
@
@ @@   WARNING :      WHEN READING INPUT DATA
@    =========
@   NON-STANDARD CHOICE WITH  TIME-SCHEME
@
@   ORDRE 2 EN TEMPS or the
@   THE VALUE RECOMMANDED FOR THE PARAMETER NSWRSM FOR
@        VARIABLEPressure         IS        10
@     NSWRSM IS NOW IMPOSED AS         5
@
@  computation will go on
@
@ Check the input data given through the User Interface
@   or in cs_user_parameters.f90.
@
@
@@@@@@@@@@@@@@@@@@@@@@@@@@@@@@@@@@@@@@@@@@@@@@@@@@@@@@@@@@@@@
@

@
@@@@@@@@@@@@@@@@@@@@@@@@@@@@@@@@@@@@@@@@@@@@@@@@@@@@@@@@@@@@@
@
@ @@   WARNING :      WHEN READING INPUT DATA
@    =========
@   NON-STANDARD CHOICE WITH  TIME-SCHEME
@
@   ORDRE 2 EN TEMPS or the
@   THE VALUE RECOMMANDED FOR THE PARAMETER NSWRSM FOR
@        VARIABLEPressure         IS        10
@     NSWRSM IS NOW IMPOSED AS         5
@
@  computation will go on
@
@ Check the input data given through the User Interface
@   or in cs_user_parameters.f90.
@
@
@@@@@@@@@@@@@@@@@@@@@@@@@@@@@@@@@@@@@@@@@@@@@@@@@@@@@@@@@@@@@
@

@
@@@@@@@@@@@@@@@@@@@@@@@@@@@@@@@@@@@@@@@@@@@@@@@@@@@@@@@@@@@@@
@
@ @@   WARNING :      WHEN READING INPUT DATA
@    =========
@   CHOICE OF TIME-SCHEME
@
@     TIME-SCHEME FOR VELOCITY IS SECOND ORDER
@       (THETAV =   0.50E+00)
@     CERTAIN TERMS ARE HOWEVER FIRST ORDER IN TIME  WITH
@       THE FOLLOWING SETTINGS:
@
@ parameters       ISTMPF ISNO2T ISTO2T IROEXT IVIEXT ICPEXT
@ Values  entered      2      1      0      0      0      0
@
@  computation will go on.
@
@ Check the input data given through the User Interface
@   or in cs_user_parameters.f90.
@
@
@@@@@@@@@@@@@@@@@@@@@@@@@@@@@@@@@@@@@@@@@@@@@@@@@@@@@@@@@@@@@
@


Warning in LES, while reading convection scheme parameters for variable diric
-------
Parameter: var_cal_opt.isstpc (slope test) = 1
while its recommended value is equal to 0.

Warning in LES, while reading convection scheme parameters for variable neuma
-------
Parameter: var_cal_opt.isstpc (slope test) = 1
while its recommended value is equal to 0.

Warning in LES, while reading convection scheme parameters for variable 11
-------
Parameter: var_cal_opt.isstpc (slope test) = 1
while its recommended value is equal to 0.

Warning in LES, while reading convection scheme parameters for variable 12
-------
Parameter: var_cal_opt.isstpc (slope test) = 1
while its recommended value is equal to 0.

 No error detected during the data verification
                          cs_user_parameters.f90 and others).


 ===========================================================

               CALCULATION PARAMETERS SUMMARY
               ==============================

 -----------------------------------------------------------


 ** DIMENSIONS
    ----------

 --- Physics
       NVAR   =              8 (Nb variables                )
       NSCAL  =              4 (Nb scalars                  )
       NSCAUS =              4 (Nb user scalars             )
       NSCAPP =              0 (Nb specific physics scalars )


 -----------------------------------------------------------


 ** VOF METHOD                              
    ----------------------------------------

       IVOFMT =             -1 ( -1: inactive                )
                               (  0: active                  )


 ** HOMOGENEOUS MIXTURE MODEL FOR CAVITATION
    ----------------------------------------

       ICAVIT =             -1 (-1: single phase flow       )
                               ( 0: no vap./cond. model     )
                               ( 1: Merkle's model        )


 -----------------------------------------------------------


 ** TIME STEPPING
    -------------

 --- Per-variable properties

------------------------------------
 Variable          ISTAT      CDTVAR
------------------------------------
 Velocity              1  0.1000E+01
 Pressure              0  0.1000E+01
 diric                 1  0.1000E+01
 neuma                 1  0.1000E+01
 11                    1  0.1000E+01
 12                    1  0.1000E+01
----------------------------

       ISTAT  =  0 ou  1       (1 for unsteady              )
       CDTVAR >  0             (time step multiplier        )

 --- Order of base time stepping scheme
       ISCHTP =              2 (1: order 1; 2: order 2      )
                                                             

 -----------------------------------------------------------


 ** STOKES
    ------

  -- Phase continue :

       ISTMPF =              2 (time scheme for flow
                               (0: explicit (THETFL = 0     )
                               (1: std scheme (Saturne 1.0  )
                               (2: 2nd-order (THETFL = 0.5  )
       THETFL =    0.50000E+00 (theta for mass flow         )
       IROEXT =              0 (density extrapolation
                               (0: explicit
                               (1: n+thetro with thetro=1/2
                               (2: n+thetro with thetro=1
       THETRO =    0.00000E+00 (theta for density
                               ((1+theta).new-theta.old
       IVIEXT =              0 (total viscosity extrapolation
                               (0: explicit
                               (1: n+thetvi with thetro=1/2
                               (2: n+thetvi with thetro=1
       THETVI =    0.00000E+00 (theta for total viscosity
                               ((1+theta).new-theta.old
       ICPEXT =              0 (specific heat extrapolation
                               (0: explicit
                               (1: n+thetcp with thetro=1/2
                               (2: n+thetcp with thetro=1
       THETCP =    0.00000E+00 (specific heat theta-scheme
                               ((1+theta).new-theta.old
       THETSN =    0.50000E+00 (Nav-Stokes S.T. theta scheme)
                               ((1+theta).new-theta.old
       THETST =    0.00000E+00 (Turbulence S.T. theta-scheme)
                               ((1+theta).new-theta.old
       EPSUP  =    0.10000E-04 (Velocity/pressure coupling
                                stop test                   )


 -----------------------------------------------------------


 ** BASE ITERATIVE SOLVERS
    ----------------------

------------------------------------
 Variable              EPSILO IDIRCL
------------------------------------
 Velocity          0.1000E-04      1
 Pressure          0.1000E-04      1
 diric             0.1000E-04      1
 neuma             0.1000E-04      1
 11                0.1000E-04      1
 12                0.1000E-04      1
------------------------------------

       EPSILO =                (resolution precision)
       IDIRCL = 0 ou 1         (shift diagonal if
                                ISTAT=0 and no Dirichlet)


 -----------------------------------------------------------


 ** SCALARS
    -------

       ITBRRB =              0 (T or H reconstruction at bdy)

-------------------------------------------------------------
 Variable         Number ISCACP  ITURT     VISLS0      SIGMAS
-------------------------------------------------------------
 diric                 1      0      0  0.1416E-03  0.1000E+01
 neuma                 2      0      0  0.1416E-03  0.1000E+01
 11                    3      0      0  0.1416E-03  0.1000E+01
 12                    4      0      0  0.1416E-03  0.1000E+01
-------------------------------------------------------------

------------------------------------
 Variable         Number      RVARFL
------------------------------------
 diric                 1  0.8000E+00
 neuma                 2  0.8000E+00
 11                    3  0.8000E+00
 12                    4  0.8000E+00
-------------------------------------------

-------------------------------------------------------
 Variable         Number ICLVFL      SCAMIN      SCAMAX
-------------------------------------------------------
 diric                 1     -1 -0.1000E+13  0.1000E+13
 neuma                 2     -1 -0.1000E+13  0.1000E+13
 11                    3     -1 -0.1000E+13  0.1000E+13
 12                    4     -1 -0.1000E+13  0.1000E+13
-------------------------------------------------------

-------------------------------------------------------------

       For each scalar, the number indicates it's rank
         in the list of all scalars. User scalars are placed
         first, from 1 to NSCAUS. Specific physics scalars
         are placed at the end, from
         NSCAUS+1 to NSCAPP+NSCAUS=NSCAL.

       ISCACP = 0 or 1     2   (use Cp or not               )
       VISLS0 = >0             (Reference viscosity         )
       SIGMAS = >0             (Schmidt                     )
       RVARFL = >0             (Rf, cf variance dissipation )
       ICLVFL = 0, 1 or 2      (Variance clipping mode      )
       SCAMIN =                (Min authorized value        )
       SCAMAX =                (Max authorized value        )
        For variances, SCAMIN is ignored and SCAMAX is used
          only if ICLVFL = 2

------------------------------------------------------
   Scalar        THETSS    IVSEXT      THETVS
------------------------------------------------------
          1  0.5000E+00         0  0.0000E+00
          2  0.5000E+00         0  0.0000E+00
          3  0.5000E+00         0  0.0000E+00
          4  0.5000E+00         0  0.0000E+00
------------------------------------------------------

       THETSS =                (theta for source terms      )
                               ((1+theta).new-theta.old     )
       IVSEXT =                (extrap. total viscosity     )
                               (0: explicit                 )
                               (1: n+thetvs with thetvs=1/2 )
                               (2: n+thetvs with thetvs=1   )
       THETVS =                (theta for scalar diffusivity
                               ((1+theta).new-theta.old     )


 -----------------------------------------------------------


 ** CALCULATION MANAGEMENT
    ----------------------

 --- Restarted calculation
       ISUITE =              1 (1: restarted calculation    )
       ILEAUX =              1 (1: read  restart/auxiliary  )
       IECAUX =              1 (1: write checkpoint/auxiliary)


 --- Calculation time
     The numbering of time steps and the measure of simulated
       physical time are absolute values, and not values
       relative to the current calculation.

       INPDT0 =              0 (1: 0 time step calcuation   )
       NTMABS =        3000000 (Final time step required    )

 --- CPU time margin
       TMARUS =   -0.10000E+01 (CPU time margin before stop )


 -----------------------------------------------------------


 ** INPUT-OUTPUT
    ------------

 --- Restart file
       NTSUIT =              0 (Checkpoint frequency )

 --- Probe history files
       NTHIST =              1 (Output frequency     )
       FRHIST =     -.10000E+01 (Output frequency (s) )
         --           --                --

 --- Log files
       NTLIST =            500 (Output frequency     )

       Number Name                IWARNI verbosity level
                                      (-999: not applicable)

 Velocity                       0
 Pressure                       0
 diric                          0
 neuma                          0
 11                             0
 12                             0
 Laminar Viscosit            -999
 Turb Viscosity              -999
 CFL                         -999
 Fourier Number              -999
 Total Pressure              -999
 11 Diff                     -999
 12 Diff                     -999
 11 Rho                      -999
 12 Rho                      -999
 Yplus                       -999
 mu_t                        -999
 u_mean                      -999
 rij                         -999
 diric_mean                  -999
 diric_variance              -999
 diric_flux                  -999
 neuma_mean                  -999
 neuma_variance              -999
 neuma_flux                  -999
 11_mean                     -999
 11_variance                 -999
 11_flux                     -999
 12_mean                     -999
 12_variance                 -999
 12_flux                     -999
 u_grad                      -999
 u_diss                      -999
 mu_t_u_grad                 -999
 mu_t_u_diss                 -999
 diric_grad                  -999
 diric_diss                  -999
 diric_mu_t_t_gra            -999
 diric_mu_t_t_dis            -999
 neuma_grad                  -999
 neuma_diss                  -999
 neuma_mu_t_t_gra            -999
 neuma_mu_t_t_dis            -999
 11_grad                     -999
 11_diss                     -999
 11_mu_t_t_grad              -999
 11_mu_t_t_diss              -999
 12_grad                     -999
 12_diss                     -999
 12_mu_t_t_grad              -999
 12_mu_t_t_diss              -999
         --           --                --

 --- Additional post-processing variables (ipstdv)
       ipstfo =              1 (Force exerted by the
                                     fluid on the boundary)
       ipstyp =              1 (y+ at boundary)
       ipsttp =              0 (T+ at boundary)
       ipstft =              1 (Thermal flux   at boundary)
       ipstnu =              0 (Dimensionless thermal
                                          flux at boundary)


 -----------------------------------------------------------


 ** ALE METHOD (MOVING MESH)
    -----------

       IALE   =              0 (1: activated                )
       NALINF =              0 (Fluid initialization
                                                  iterations)
       IFLXMW =              0 (ALE mass flux computation
                                0: thanks to vertices
                                1: thanks to mesh velocity)


 -----------------------------------------------------------


Postprocessing output writers:
------------------------------

  -1: name: results
      directory: postprocessing
      format: EnSight Gold
      options: 
      time dependency: fixed mesh
      output: every 100000 time steps and at calculation end

  -5: name: 
      directory: monitoring
      format: time_plot
      options: 
      time dependency: fixed mesh
      output: every 1 time steps

  -6: name: 
      directory: profiles
      format: plot
      options: 
      time dependency: fixed mesh
      output: at calculation end


 Reading file:        mesh_input
 Finished reading:    mesh_input
 No "partition_input/domain_number_140" file available;

 ----------------------------------------------------------

 Ignoring periodicity for graph-based partitioning.

 Partitioning 9360000 cells to 140 domains on 140 ranks
   (SCOTCH_dgraphPart).

  wall-clock time: 17.019268 s

  Number of cells per domain (histogramm):
    [      64613 ;      65032 [ =          4
    [      65032 ;      65452 [ =          8
    [      65452 ;      65872 [ =         10
    [      65872 ;      66292 [ =         19
    [      66292 ;      66712 [ =         23
    [      66712 ;      67131 [ =         17
    [      67131 ;      67551 [ =         23
    [      67551 ;      67971 [ =         16
    [      67971 ;      68391 [ =         10
    [      68391 ;      68811 ] =         10

 Writing file:        partition_output/domain_number_140
 Finished writing:    partition_output/domain_number_140

 Partitioning finished (22 s)

 Before insertion of user-defined boundary
   Number of cells:          9360000
   Number of interior faces: 28133600
   Number of boundary faces: 80000
   Number of vertices:       9494235

 After insertion of user-defined boundary
   Number of cells:          9360000
   Number of interior faces: 27960000
   Number of boundary faces: 240000
   Number of vertices:       9575037


 ----------------------------------------------------------
 Composing periodicities

 Halo construction with standard neighborhood
 ============================================

 Face interfaces creation
 Definition of periodic vertices
 Vertex interfaces creation
 Halo creation
 Halo definition
    Local halo definition
    Distant halo creation
    Updating the faces -> cells connectivity

 Histogram of the number of cells per rank:

    minimum value =              64613
    maximum value =              68811

      1 : [      64613 ;      65452 [ =         12
      2 : [      65452 ;      66292 [ =         29
      3 : [      66292 ;      67131 [ =         40
      4 : [      67131 ;      67971 [ =         39
      5 : [      67971 ;      68811 ] =         20

 ----------------------------------------------------------

 Histogram of the number of standard + halo cells per rank:

    minimum value =              72958
    maximum value =              83680

      1 : [      72958 ;      75102 [ =         16
      2 : [      75102 ;      77246 [ =         45
      3 : [      77246 ;      79391 [ =         51
      4 : [      79391 ;      81535 [ =         23
      5 : [      81535 ;      83680 ] =          5

 ----------------------------------------------------------

 Histogram of the number of ghost cells per rank:

    minimum value =               6494
    maximum value =              15464

      1 : [       6494 ;       8288 [ =         18
      2 : [       8288 ;      10082 [ =         16
      3 : [      10082 ;      11876 [ =         69
      4 : [      11876 ;      13670 [ =         29
      5 : [      13670 ;      15464 ] =          8

 ----------------------------------------------------------

 Histogram of the number of interior faces per rank:

    minimum value =             196855
    maximum value =             212575

      1 : [     196855 ;     199999 [ =         10
      2 : [     199999 ;     203143 [ =         24
      3 : [     203143 ;     206287 [ =         42
      4 : [     206287 ;     209431 [ =         48
      5 : [     209431 ;     212575 ] =         16

 ----------------------------------------------------------

 Histogram of the number of boundary faces per rank:

    minimum value =                  0
    maximum value =               6067

      1 : [          0 ;       1213 [ =         72
      2 : [       1213 ;       2426 [ =         14
      3 : [       2426 ;       3640 [ =         28
      4 : [       3640 ;       4853 [ =         21
      5 : [       4853 ;       6067 ] =          5

 ----------------------------------------------------------

 Histogram of the number of interior faces per cell:

    minimum value =                  5
    maximum value =                  6

      1 : [          5 ;          6 ] =    9360000

 ----------------------------------------------------------

 Histogram of the number of neighboring domains per rank:

    minimum value =                  9
    maximum value =                 23

      1 : [          9 ;         11 [ =         13
      2 : [         11 ;         14 [ =         45
      3 : [         14 ;         17 [ =         50
      4 : [         17 ;         20 [ =         28
      5 : [         20 ;         23 ] =          4

 ----------------------------------------------------------

 Global definition of the number of elements (cells, vertices, faces...)
Synchronizing cell families

 Writing file:        mesh_output
 Finished writing:    mesh_output

 Renumbering mesh:

   renumbering for cells:
     pre-numbering:                       none
     cells adjacent to ghost cells last:  no
     numbering:                           none

   renumbering for interior faces:
     cell adjacency pre-ordering:         lowest id first
     faces adjacent to ghost cells last:  no
     numbering:                           none

   renumbering for boundary faces:
     numbering:                           none

 ----------------------------------------------------------

 Histogram of volume mesh matrix bandwidth per rank:

    minimum value =              70318
    maximum value =              82212

      1 : [      70318 ;      72696 [ =         20
      2 : [      72696 ;      75075 [ =         32
      3 : [      75075 ;      77454 [ =         45
      4 : [      77454 ;      79833 [ =         34
      5 : [      79833 ;      82212 ] =          9

 Histogram of volume mesh matrix profile/lines per rank:

    minimum value =               4959
    maximum value =              15362

      1 : [       4959 ;       7039 [ =         46
      2 : [       7039 ;       9120 [ =         63
      3 : [       9120 ;      11200 [ =         23
      4 : [      11200 ;      13281 [ =          5
      5 : [      13281 ;      15362 ] =          3

 Mesh coordinates:               minimum    and maximum
                       X : -1.7763568e-15  6.2830000e+00
                       Y : -1.1470588e+00  1.1470588e+00
                       Z : -8.8817842e-16  3.1420000e+00
 Mesh
     Number of cells:          9360000
     Number of interior faces: 28053600
     Number of boundary faces: 240000
     Number of vertices:       9575037

 Periodic faces (which are also interior faces):
     Periodicity  1:          46800 face couples
     Periodicity  2:          46800 face couples

 Groups:
    "0"
       cells:               9360000
       interior faces:     28053600
       boundary faces:       240000
    "auto:internal_coupling_0"
       boundary faces:       160000

 --- Information on the volumes
       Minimum control volume      =  4.8352417e-07
       Maximum control volume      =  7.6704997e-06
       Total volume for the domain =  4.5288603e+01

  Criterion 1: Orthogonality:
    Number of bad cells detected: 0 -->   0 %

  Criterion 2: Offset:
    Number of bad cells detected: 0 -->   0 %

  Criterion 3: Least-Squares Gradient Quality:
    Number of bad cells detected: 0 -->   0 %

  Criterion 4: Cells Volume Ratio:
    Number of bad cells detected: 0 -->   0 %

  Criterion 5: Guilt by Association:
    Number of bad cells detected: 0 -->   0 %

 Computing geometric quantities (0.132 s)

 Internal coupling
   coupling_id = 0
   Coupled scalar: 11
   Cell group selection criterion: -1.<y<1.
   Face group selection criterion: auto:internal_coupling_0
   Locator: n dist points (total coupled boundary faces) = 160000
                                                             
       ALMAX  =    0.35645E+01 (Characteristic length       )
       ALMAX is the cubic root of the domain volume.


 ----------------------------------------------------------- 

   ** READING MAIN AND AUXILIARY RESTART FILES
      ----------------------------------------


      READING THE MAIN RESTART FILE

 Start reading
 Reading dimensions complete
  Reading the previous time step number (restarting computation)  NTPABS =      1500000
  Reading the previous time step number (restarting computation)  TTPABS =   0.7000E+04
 Reading options complete
  Read variables from restart: restart/main
 Reading complete

         READING THE AUXILIARY RESTART FILE             

 Start reading                                          
   Fin de la lecture des options                        
   Fin de la lecture des proprietes physiques           
   Fin de la lecture du pas de temps                    
   Fin de la lecture des flux de masse                  
   Fin de la lecture des conditions aux limites         
  restart/auxiliary: section "time_moments:sizes" not present.
 End reading                                            

 ----------------------------------------------------------- 


 -----------------------------------------------------------


 ** VARIABLES INITIALIZATION
    ------------------------

 -----------------------------------------
  Variable          Min. value  Max. value
 -----------------------------------------                   
  Velocity          0.0000E+00  0.4247E+01
  Velocity         -0.8612E+00  0.7924E+00
  Velocity         -0.1122E+01  0.9652E+00
  Pressure         -0.5255E+00  0.5021E+00
  diric             0.0000E+00  0.2976E-01
  neuma            -0.2984E-01  0.1117E-01
  11               -0.1487E+00  0.2365E-01
  12               -0.1484E+01  0.1207E+00
 ---------------------------------

                dt  0.2000E-02  0.2000E-02
 ---------------------------------



-------------------------------------------------------------

 ------------------------------------------------------------- 



===============================================================



                       MAIN CALCULATION                      
                       ================                      


===============================================================




===============================================================


 INSTANT    0.700000200E+04   TIME STEP NUMBER         1500001
 ============================================================= 


 -----------------------------------------
 Property           Min. value  Max. value
 -----------------------------------------
  density           0.1000E+01  0.1000E+01
  molecular_viscos  0.1416E-03  0.1416E-03
  turbulent_viscos  0.0000E+00  0.3760E-02
 -----------------------------------------

 --- Diffusivity:
 -----------------------------------------------
 Scalar           Number  Min. value  Max. value
 -----------------------------------------------
 diric                 1  0.1416E-03  0.1416E-03
 neuma                 2  0.1416E-03  0.1416E-03
 11                    3  0.1416E-03  0.1416E-03
 12                    4  0.1267E-04  0.1416E-03
 -----------------------------------------------



   ** INFORMATION ON BOUNDARY FACES TYPE
      ----------------------------------

-------------------------------------------------------------------------
Boundary type          Code    Nb faces
-------------------------------------------------------------------------
Inlet                     2           0
Smooth wall               5      240000
Rough wall                6           0
Symmetry                  4           0
Free outlet               3           0
Free inlet               14           0
Convective inlet         16           0
Free surface             15           0
Undefined                 1           0
-------------------------------------------------------------------------



   ** BOUNDARY MASS FLOW INFORMATION
      ------------------------------

---------------------------------------------------------------
Boundary type          Code    Nb faces           Mass flow
---------------------------------------------------------------
Inlet                     2           0         0.000000000E+00
Smooth wall               5      240000         0.000000000E+00
Rough wall                6           0         0.000000000E+00
Symmetry                  4           0         0.000000000E+00
Free outlet               3           0         0.000000000E+00
Free inlet               14           0         0.000000000E+00
Convective inlet         16           0         0.000000000E+00
Free surface             15           0         0.000000000E+00
Undefined                 1           0         0.000000000E+00
---------------------------------------------------------------

 cedric output : friction bot wall =   0.41339511306754106      -0.97296820782411997       -1.8034427538686938E-004
 cedric output : friction top wall =   0.41531572119754978       0.97295540086650978        2.1075548820547808E-004

 INSTANT    0.700000400E+04   TIME STEP NUMBER         1500002
 ============================================================= 




   ** BOUNDARY MASS FLOW INFORMATION
      ------------------------------

---------------------------------------------------------------
Boundary type          Code    Nb faces           Mass flow
---------------------------------------------------------------
Inlet                     2           0         0.000000000E+00
Smooth wall               5      240000         0.000000000E+00
Rough wall                6           0         0.000000000E+00
Symmetry                  4           0         0.000000000E+00
Free outlet               3           0         0.000000000E+00
Free inlet               14           0         0.000000000E+00
Convective inlet         16           0         0.000000000E+00
Free surface             15           0         0.000000000E+00
Undefined                 1           0         0.000000000E+00
---------------------------------------------------------------

 cedric output : friction bot wall =   0.41341292037293792      -0.97313217456037227       -1.7067925759212772E-004
 cedric output : friction top wall =   0.41532265561904547       0.97311654443145157        2.1366950899818409E-004

 INSTANT    0.700000600E+04   TIME STEP NUMBER         1500003
 ============================================================= 


 cedric output : friction bot wall =   0.41343126222689830      -0.97329546799256605       -1.6094990759617331E-004
 cedric output : friction top wall =   0.41532932301108039       0.97328197717170450        2.1678482116190402E-004

 INSTANT    0.700000800E+04   TIME STEP NUMBER         1500004
 ============================================================= 


 cedric output : friction bot wall =   0.41345014937965552      -0.97345303096743607       -1.5116582239871063E-004
 cedric output : friction top wall =   0.41533570319746432       0.97344103625184253        2.2010388319395658E-004

 INSTANT    0.700001000E+04   TIME STEP NUMBER         1500005
 ============================================================= 


 cedric output : friction bot wall =   0.41346958846004572      -0.97360468958368829       -1.4133062744668570E-004
 cedric output : friction top wall =   0.41534176211580948       0.97359420311227995        2.2363602546404833E-004

 INSTANT    0.700001200E+04   TIME STEP NUMBER         1500006
 ============================================================= 


 cedric output : friction bot wall =   0.41348959269431573      -0.97375108279685896       -1.3144728099558631E-004
 cedric output : friction top wall =   0.41534746272782086       0.97374222665697530        2.2738792405399598E-004

 INSTANT    0.700001400E+04   TIME STEP NUMBER         1500007
 ============================================================= 


 cedric output : friction bot wall =   0.41351018509837567      -0.97389347747524180       -1.2152036457744296E-004
 cedric output : friction top wall =   0.41535275180259801       0.97388611847251261        2.3136958136972887E-004

 INSTANT    0.700001600E+04   TIME STEP NUMBER         1500008
 ============================================================= 


 cedric output : friction bot wall =   0.41353138616241347      -0.97403125358377562       -1.1155137327724656E-004
 cedric output : friction top wall =   0.41535756923083478       0.97402306855052045        2.3558044474668402E-004

 INSTANT    0.700001800E+04   TIME STEP NUMBER         1500009
 ============================================================= 


 cedric output : friction bot wall =   0.41355322100686009      -0.97416372131119333       -1.0154116727763480E-004
 cedric output : friction top wall =   0.41536189281071950       0.97415479868866917        2.4001062365569612E-004

 INSTANT    0.700002000E+04   TIME STEP NUMBER         1500010
 ============================================================= 


 cedric output : friction bot wall =   0.41357571415063843      -0.97429281739613016       -9.1491534706346876E-005
 cedric output : friction top wall =   0.41536572991046150       0.97428398951415507        2.4464323596420749E-004
 cedric output : bulk fluid temperature =    7000.0200004701755        1.9354371431886761E-002   4.0727997750462944E-011   1.2836278688073117E-009   7.0653995279165283E-009
 cedric output : bulk solid temperature =    7000.0200004701755       -8.0766350988623059E-002 -0.73392217937282067     

 INSTANT    0.700002200E+04   TIME STEP NUMBER         1500011
 ============================================================= 


 cedric output : friction bot wall =   0.41359889394463090      -0.97441907428186203       -8.1403573246158732E-005
 cedric output : friction top wall =   0.41536908235667175       0.97441103549231667        2.4946061007751917E-004

 INSTANT    0.700002400E+04   TIME STEP NUMBER         1500012
 ============================================================= 


 cedric output : friction bot wall =   0.41362278681127257      -0.97454069752591188       -7.1278645406639947E-005
 cedric output : friction top wall =   0.41537195727881204       0.97453398678541070        2.5444215227163022E-004

 INSTANT    0.700002600E+04   TIME STEP NUMBER         1500013
 ============================================================= 


 cedric output : friction bot wall =   0.41364739978061754      -0.97465883340436843       -6.1114973404367335E-005
 cedric output : friction top wall =   0.41537438115287362       0.97465398617516374        2.5956743114472511E-004

 INSTANT    0.700002800E+04   TIME STEP NUMBER         1500014
 ============================================================= 


 cedric output : friction bot wall =   0.41367274624520328      -0.97477456381198602       -5.0913786216198135E-005
 cedric output : friction top wall =   0.41537637464773858       0.97477103683639577        2.6482394582282584E-004

 INSTANT    0.700003000E+04   TIME STEP NUMBER         1500015
 ============================================================= 


 cedric output : friction bot wall =   0.41369884064464646      -0.97488739783741096       -4.0680914105654855E-005
 cedric output : friction top wall =   0.41537791477911845       0.97488472212573696        2.7021339630423969E-004

 INSTANT    0.700003200E+04   TIME STEP NUMBER         1500016
 ============================================================= 


 cedric output : friction bot wall =   0.41372568872480187      -0.97499697443571620       -3.0423764559359850E-005
 cedric output : friction top wall =   0.41537898705095200       0.97499422213514186        2.7574084690517404E-004

 INSTANT    0.700003400E+04   TIME STEP NUMBER         1500017
 ============================================================= 


 cedric output : friction bot wall =   0.41375329906665326      -0.97510417760558044       -2.0151049269797271E-005
 cedric output : friction top wall =   0.41537959815675635       0.97510157888359439        2.8141125624927057E-004

 INSTANT    0.700003600E+04   TIME STEP NUMBER         1500018
 ============================================================= 


 cedric output : friction bot wall =   0.41378169109637475      -0.97521007843669338       -9.8732309429200391E-006
 cedric output : friction top wall =   0.41537975216167722       0.97520743774443996        2.8722554190270912E-004

 INSTANT    0.700003800E+04   TIME STEP NUMBER         1500019
 ============================================================= 


 cedric output : friction bot wall =   0.41381089188253040      -0.97531320017678780        3.9309210899134053E-007
 cedric output : friction top wall =   0.41537944473681276       0.97531121130231602        2.9317027188860791E-004

 INSTANT    0.700004000E+04   TIME STEP NUMBER         1500020
 ============================================================= 


 cedric output : friction bot wall =   0.41384092134712158      -0.97541348794130944        1.0627647465044176E-005
 cedric output : friction top wall =   0.41537869071686162       0.97541274522578469        2.9923190078426094E-004
 cedric output : bulk fluid temperature =    7000.0400004701796        1.9354357300540987E-002   4.0810997524502689E-011   1.2780195803594475E-009   7.0769801363277473E-009
 cedric output : bulk solid temperature =    7000.0400004701796       -8.0766296753727720E-002 -0.73392213966656739     

 INSTANT    0.700004200E+04   TIME STEP NUMBER         1500021
 ============================================================= 


 cedric output : friction bot wall =   0.41387177473478071      -0.97551069631873477        2.0809825584425365E-005
 cedric output : friction top wall =   0.41537753588244447       0.97551200257218917        3.0539877206662994E-004

 INSTANT    0.700004400E+04   TIME STEP NUMBER         1500022
 ============================================================= 


 cedric output : friction bot wall =   0.41390343721019351      -0.97560349129372925        3.0923080408036324E-005
 cedric output : friction top wall =   0.41537603781492716       0.97560667858150452        3.1165827598694665E-004

 INSTANT    0.700004600E+04   TIME STEP NUMBER         1500023
 ============================================================= 


 cedric output : friction bot wall =   0.41393589244802637      -0.97569135623868952        4.0941974757074387E-005
 cedric output : friction top wall =   0.41537423493061471       0.97569557506502413        3.1799645155062043E-004

 INSTANT    0.700004800E+04   TIME STEP NUMBER         1500024
 ============================================================= 


 cedric output : friction bot wall =   0.41396911291385413      -0.97577502136974303        5.0831887736908278E-005
 cedric output : friction top wall =   0.41537214790787352       0.97577864798245151        3.2440027154783237E-004

 INSTANT    0.700005000E+04   TIME STEP NUMBER         1500025
 ============================================================= 


 cedric output : friction bot wall =   0.41400305962663209      -0.97585521770203110        6.0556262334351312E-005
 cedric output : friction top wall =   0.41536980877804747       0.97585882538478319        3.3086004513992488E-004

 INSTANT    0.700005200E+04   TIME STEP NUMBER         1500026
 ============================================================= 


 cedric output : friction bot wall =   0.41403771061115241      -0.97593152157087837        7.0079466461890399E-005
 cedric output : friction top wall =   0.41536724873565473       0.97593419941823623        3.3737296120357979E-004

 INSTANT    0.700005400E+04   TIME STEP NUMBER         1500027
 ============================================================= 


 cedric output : friction bot wall =   0.41407305218774637      -0.97600288251929834        7.9362244454841816E-005
 cedric output : friction top wall =   0.41536449776200035       0.97600650426490687        3.4394730900466186E-004

 INSTANT    0.700005600E+04   TIME STEP NUMBER         1500028
 ============================================================= 


 cedric output : friction bot wall =   0.41410906100578454      -0.97606931047072321        8.8366643804571815E-005
 cedric output : friction top wall =   0.41536159259579153       0.97607477048403479        3.5059055405992328E-004

 INSTANT    0.700005800E+04   TIME STEP NUMBER         1500029
 ============================================================= 


 cedric output : friction bot wall =   0.41414569419966835      -0.97613172596630038        9.7064516129532021E-005
 cedric output : friction top wall =   0.41535857352549438       0.97613861701631954        3.5730091762341731E-004

 INSTANT    0.700006000E+04   TIME STEP NUMBER         1500030
 ============================================================= 


 cedric output : friction bot wall =   0.41418288810422255      -0.97619067234798940        1.0544927602215671E-004
 cedric output : friction top wall =   0.41535548428791658       0.97619958647648031        3.6406738894538798E-004
 cedric output : bulk fluid temperature =    7000.0600004701837        1.9354342696475565E-002   4.1458830277985762E-011   1.2764124835784421E-009   7.0982027836567154E-009
 cedric output : bulk solid temperature =    7000.0600004701837       -8.0766239803075707E-002 -0.73392209802527131     

 INSTANT    0.700006200E+04   TIME STEP NUMBER         1500031
 ============================================================= 


 cedric output : friction bot wall =   0.41422056147016939      -0.97624941534484133        1.1352777095001258E-004
 cedric output : friction top wall =   0.41535235433965328       0.97625814966882574        3.7087310697767181E-004

 INSTANT    0.700006400E+04   TIME STEP NUMBER         1500032
 ============================================================= 


 cedric output : friction bot wall =   0.41425861838897293      -0.97630881150421400        1.2131991790188443E-004
 cedric output : friction top wall =   0.41534921669654701       0.97631719810237527        3.7770013995203381E-004

 INSTANT    0.700006600E+04   TIME STEP NUMBER         1500033
 ============================================================= 


 cedric output : friction bot wall =   0.41429694290568669      -0.97636994631163132        1.2885068323896564E-004
 cedric output : friction top wall =   0.41534610833458446       0.97637683221960681        3.8452965793351831E-004

 INSTANT    0.700006800E+04   TIME STEP NUMBER         1500034
 ============================================================= 


 cedric output : friction bot wall =   0.41433540111402384      -0.97643313951722011        1.3614489120607979E-004
 cedric output : friction top wall =   0.41534304858054449       0.97644050038148533        3.9134561566365957E-004

 INSTANT    0.700007000E+04   TIME STEP NUMBER         1500035
 ============================================================= 


 cedric output : friction bot wall =   0.41437386618043354      -0.97649881855943366        1.4323095265880530E-004
 cedric output : friction top wall =   0.41534003119964574       0.97650766050601967        3.9812956694034525E-004

 INSTANT    0.700007200E+04   TIME STEP NUMBER         1500036
 ============================================================= 


 cedric output : friction bot wall =   0.41441222985387560      -0.97656672073944928        1.5012987836489496E-004
 cedric output : friction top wall =   0.41533704304342489       0.97657736683786578        4.0486376538766903E-004

 INSTANT    0.700007400E+04   TIME STEP NUMBER         1500037
 ============================================================= 


 cedric output : friction bot wall =   0.41445039264414274      -0.97663960651165116        1.5685611301752614E-004
 cedric output : friction top wall =   0.41533407744499090       0.97665093922477286        4.1152893855715147E-004

 INSTANT    0.700007600E+04   TIME STEP NUMBER         1500038
 ============================================================= 


 cedric output : friction bot wall =   0.41448825139506551      -0.97671875880809422        1.6341646724302351E-004
 cedric output : friction top wall =   0.41533113208078454       0.97673002359604655        4.1810916841382201E-004

 INSTANT    0.700007800E+04   TIME STEP NUMBER         1500039
 ============================================================= 


 cedric output : friction bot wall =   0.41452568926160904      -0.97680338789064303        1.6981570053541540E-004
 cedric output : friction top wall =   0.41532820493015238       0.97681444439991028        4.2459271819453390E-004

 INSTANT    0.700008000E+04   TIME STEP NUMBER         1500040
 ============================================================= 


 cedric output : friction bot wall =   0.41456258394908913      -0.97689427344796975        1.7606475038183385E-004
 cedric output : friction top wall =   0.41532530273832247       0.97690491045810823        4.3097203263917593E-004
 cedric output : bulk fluid temperature =    7000.0800004701878        1.9354327247836478E-002   4.1440142171994578E-011   1.2651247321807854E-009   7.0900886538728872E-009
 cedric output : bulk solid temperature =    7000.0800004701878       -8.0766179110612485E-002 -0.73392205377001607     

 INSTANT    0.700008200E+04   TIME STEP NUMBER         1500041
 ============================================================= 


 cedric output : friction bot wall =   0.41459881674514010      -0.97699145869527682        1.8216676166216600E-004
 cedric output : friction top wall =   0.41532242724057300       0.97700136529914539        4.3723509426283713E-004

 INSTANT    0.700008400E+04   TIME STEP NUMBER         1500042
 ============================================================= 


 cedric output : friction bot wall =   0.41463428081293929      -0.97709268581732811        1.8809991311938696E-004
 cedric output : friction top wall =   0.41531956887120602       0.97710384293850039        4.4336184975286971E-004

 INSTANT    0.700008600E+04   TIME STEP NUMBER         1500043
 ============================================================= 


 cedric output : friction bot wall =   0.41466887283212978      -0.97719835596980575        1.9383154832506617E-004
 cedric output : friction top wall =   0.41531670581387720       0.97721088318477300        4.4932671007834367E-004

 INSTANT    0.700008800E+04   TIME STEP NUMBER         1500044
 ============================================================= 


 cedric output : friction bot wall =   0.41470249621732308      -0.97731004256659681        1.9932237721326652E-004
 cedric output : friction top wall =   0.41531380454015510       0.97732295742005237        4.5510147554175438E-004

 INSTANT    0.700009000E+04   TIME STEP NUMBER         1500045
 ============================================================= 


 cedric output : friction bot wall =   0.41473508269428744      -0.97742702598166420        2.0453388734372602E-004
 cedric output : friction top wall =   0.41531082915346307       0.97744012132393288        4.6066720581008588E-004

 INSTANT    0.700009200E+04   TIME STEP NUMBER         1500046
 ============================================================= 


 cedric output : friction bot wall =   0.41476659187691073      -0.97754788103353429        2.0942900027593782E-004
 cedric output : friction top wall =   0.41530774603842435       0.97756071475482564        4.6601338368451465E-004

 INSTANT    0.700009400E+04   TIME STEP NUMBER         1500047
 ============================================================= 


 cedric output : friction bot wall =   0.41479699465109465      -0.97767187356243213        2.1396664252853017E-004
 cedric output : friction top wall =   0.41530452675517271       0.97768381928292059        4.7113984214793773E-004

 INSTANT    0.700009600E+04   TIME STEP NUMBER         1500048
 ============================================================= 


 cedric output : friction bot wall =   0.41482625800869860      -0.97779877659254866        2.1810255301496490E-004
 cedric output : friction top wall =   0.41530114714164973       0.97780974365871443        4.7605509439356498E-004

 INSTANT    0.700009800E+04   TIME STEP NUMBER         1500049
 ============================================================= 


 cedric output : friction bot wall =   0.41485436065139447      -0.97792833732117956        2.2180260550095011E-004
 cedric output : friction top wall =   0.41529760527665438       0.97793900170741110        4.8077359688453386E-004

 INSTANT    0.700010000E+04   TIME STEP NUMBER         1500050
 ============================================================= 


 cedric output : friction bot wall =   0.41488129654405137      -0.97805996683391350        2.2505546973738689E-004
 cedric output : friction top wall =   0.41529392221930073       0.97807185655423212        4.8530566089827730E-004
 cedric output : bulk fluid temperature =    7000.1000004701918        1.9354310750515014E-002   4.0422194832162483E-011   1.2449000152901585E-009   7.0590375405017837E-009
 cedric output : bulk solid temperature =    7000.1000004701918       -8.0766113899387371E-002 -0.73392200610142133     

 INSTANT    0.700010200E+04   TIME STEP NUMBER         1500051
 ============================================================= 


 cedric output : friction bot wall =   0.41490707478316113      -0.97819436253339154        2.2786540682674650E-004
 cedric output : friction top wall =   0.41529012194229614       0.97820791349597136        4.8964924850303097E-004

 INSTANT    0.700010400E+04   TIME STEP NUMBER         1500052
 ============================================================= 


 cedric output : friction bot wall =   0.41493171947933116      -0.97833235480568659        2.3024518662569245E-004
 cedric output : friction top wall =   0.41528621294977697       0.97834579911041775        4.9379300275326221E-004

 INSTANT    0.700010600E+04   TIME STEP NUMBER         1500053
 ============================================================= 


 cedric output : friction bot wall =   0.41495524089253366      -0.97847273415747593        2.3220344455208676E-004
 cedric output : friction top wall =   0.41528218702496605       0.97848458944458017        4.9772044556764734E-004

 INSTANT    0.700010800E+04   TIME STEP NUMBER         1500054
 ============================================================= 


 cedric output : friction bot wall =   0.41497762699484642      -0.97861497675590592        2.3373691231343607E-004
 cedric output : friction top wall =   0.41527802760244281       0.97862505636053310        5.0142206846347226E-004

 INSTANT    0.700011000E+04   TIME STEP NUMBER         1500055
 ============================================================= 


 cedric output : friction bot wall =   0.41499890331300893      -0.97875906136098156        2.3484385115111811E-004
 cedric output : friction top wall =   0.41527371922124234       0.97876792247682787        5.0489394892777432E-004

 INSTANT    0.700011200E+04   TIME STEP NUMBER         1500056
 ============================================================= 


 cedric output : friction bot wall =   0.41501913458011119      -0.97890280241342320        2.3551978354095467E-004
 cedric output : friction top wall =   0.41526924706060264       0.97891213071900085        5.0813800374491171E-004

 INSTANT    0.700011400E+04   TIME STEP NUMBER         1500057
 ============================================================= 


 cedric output : friction bot wall =   0.41503838665027804      -0.97904703744905985        2.3575761167649761E-004
 cedric output : friction top wall =   0.41526461167296408       0.97905812917678769        5.1116285640588534E-004

 INSTANT    0.700011600E+04   TIME STEP NUMBER         1500058
 ============================================================= 


 cedric output : friction bot wall =   0.41505671142612777      -0.97919261786203138        2.3555299578613539E-004
 cedric output : friction top wall =   0.41525983300657793       0.97920487111137222        5.1398070941829259E-004

 INSTANT    0.700011800E+04   TIME STEP NUMBER         1500059
 ============================================================= 


 cedric output : friction bot wall =   0.41507415045283264      -0.97933873586880438        2.3491290788233180E-004
 cedric output : friction top wall =   0.41525494025108839       0.97935013349704692        5.1660624386289523E-004

 INSTANT    0.700012000E+04   TIME STEP NUMBER         1500060
 ============================================================= 


 cedric output : friction bot wall =   0.41509074476741764      -0.97948360215705965        2.3386176852028769E-004
 cedric output : friction top wall =   0.41524996345485832       0.97949361312583338        5.1904797613145260E-004
 cedric output : bulk fluid temperature =    7000.1200004701959        1.9354293376250636E-002   3.9816425958609830E-011   1.2332888233238552E-009   7.0358276822028830E-009
 cedric output : bulk solid temperature =    7000.1200004701959       -8.0766044702931028E-002 -0.73392195524610060     

 INSTANT    0.700012200E+04   TIME STEP NUMBER         1500061
 ============================================================= 


 cedric output : friction bot wall =   0.41510652790133107      -0.97962725081681534        2.3242928307855873E-004
 cedric output : friction top wall =   0.41524492701673288       0.97963561993506831        5.2130841040654810E-004

 INSTANT    0.700012400E+04   TIME STEP NUMBER         1500062
 ============================================================= 


 cedric output : friction bot wall =   0.41512154057799167      -0.97976940743112784        2.3064456898300113E-004
 cedric output : friction top wall =   0.41523984229958405       0.97977807902108571        5.2338552189147753E-004

 INSTANT    0.700012600E+04   TIME STEP NUMBER         1500063
 ============================================================= 


 cedric output : friction bot wall =   0.41513584104517243      -0.97990935976034843        2.2852683726713448E-004
 cedric output : friction top wall =   0.41523471366597658       0.97991857340060040        5.2527309639988995E-004

 INSTANT    0.700012800E+04   TIME STEP NUMBER         1500064
 ============================================================= 


 cedric output : friction bot wall =   0.41514948976874544      -0.98004606515723491        2.2608134599661368E-004
 cedric output : friction top wall =   0.41522953623802550       0.98005670148596469        5.2696896855364522E-004

 INSTANT    0.700013000E+04   TIME STEP NUMBER         1500065
 ============================================================= 


 cedric output : friction bot wall =   0.41516254327211666      -0.98017971937915782        2.2330476678125754E-004
 cedric output : friction top wall =   0.41522430468398419       0.98018945716677564        5.2847689175321527E-004

 INSTANT    0.700013200E+04   TIME STEP NUMBER         1500066
 ============================================================= 


 cedric output : friction bot wall =   0.41517506345307104      -0.98031061150213461        2.2019366835695229E-004
 cedric output : friction top wall =   0.41521903177890124       0.98031977454668962        5.2980436498371441E-004

 INSTANT    0.700013400E+04   TIME STEP NUMBER         1500067
 ============================================================= 


 cedric output : friction bot wall =   0.41518710765086564      -0.98043626248114657        2.1674542632787455E-004
 cedric output : friction top wall =   0.41521374331279970       0.98044314309031844        5.3096585738934593E-004

 INSTANT    0.700013600E+04   TIME STEP NUMBER         1500068
 ============================================================= 


 cedric output : friction bot wall =   0.41519873063636648      -0.98055881465716399        2.1296501949157878E-004
 cedric output : friction top wall =   0.41520846200553579       0.98056402902044093        5.3198200512637682E-004

 INSTANT    0.700013800E+04   TIME STEP NUMBER         1500069
 ============================================================= 


 cedric output : friction bot wall =   0.41520998705848711      -0.98067614063500275        2.0886445430277423E-004
 cedric output : friction top wall =   0.41520320697868979       0.98068122818342718        5.3287140351879073E-004

 INSTANT    0.700014000E+04   TIME STEP NUMBER         1500070
 ============================================================= 


 cedric output : friction bot wall =   0.41522092655842274      -0.98078772285669324        2.0445864372636044E-004
 cedric output : friction top wall =   0.41519799194047524       0.98079368625063901        5.3365013436801030E-004
 cedric output : bulk fluid temperature =    7000.1400004702000        1.9354275421515823E-002   4.0001216226745284E-011   1.2344787052070749E-009   7.0413675987578284E-009
 cedric output : bulk solid temperature =    7000.1400004702000       -8.0765973103886585E-002 -0.73392190259847623     

 INSTANT    0.700014200E+04   TIME STEP NUMBER         1500071
 ============================================================= 


 cedric output : friction bot wall =   0.41523160009963911      -0.98089315160614243        1.9976497914599958E-004
 cedric output : friction top wall =   0.41519282790027950       0.98089885495233109        5.3432843177150140E-004

 INSTANT    0.700014400E+04   TIME STEP NUMBER         1500072
 ============================================================= 


 cedric output : friction bot wall =   0.41524205659326274      -0.98099172368877285        1.9480612863440424E-004
 cedric output : friction top wall =   0.41518771717966030       0.98099754509316606        5.3491216814093023E-004

 INSTANT    0.700014600E+04   TIME STEP NUMBER         1500073
 ============================================================= 


 cedric output : friction bot wall =   0.41525234228346575      -0.98108275892671803        1.8960552704300432E-004
 cedric output : friction top wall =   0.41518265425264478       0.98108793039453501        5.3540833120201570E-004

 INSTANT    0.700014800E+04   TIME STEP NUMBER         1500074
 ============================================================= 


 cedric output : friction bot wall =   0.41526250439147716      -0.98116392406634412        1.8417749474566105E-004
 cedric output : friction top wall =   0.41517763536917340       0.98116825925195261        5.3581958091313854E-004

 INSTANT    0.700015000E+04   TIME STEP NUMBER         1500075
 ============================================================= 


 cedric output : friction bot wall =   0.41527258792036414      -0.98123503172640436        1.7853191604875552E-004
 cedric output : friction top wall =   0.41517266758348276       0.98123878354422323        5.3614447336319706E-004

 INSTANT    0.700015200E+04   TIME STEP NUMBER         1500076
 ============================================================= 


 cedric output : friction bot wall =   0.41528263519378900      -0.98129460760376452        1.7268164421275838E-004
 cedric output : friction top wall =   0.41516775909384585       0.98129858474985521        5.3638903942899996E-004

 INSTANT    0.700015400E+04   TIME STEP NUMBER         1500077
 ============================================================= 


 cedric output : friction bot wall =   0.41529268388726626      -0.98134361226756139        1.6664104339352822E-004
 cedric output : friction top wall =   0.41516291718936277       0.98134755633641879        5.3656878494958977E-004

 INSTANT    0.700015600E+04   TIME STEP NUMBER         1500078
 ============================================================= 


 cedric output : friction bot wall =   0.41530277709337027      -0.98138210576589402        1.6042843416547007E-004
 cedric output : friction top wall =   0.41515814784608451       0.98138686999772362        5.3670207292087172E-004

 INSTANT    0.700015800E+04   TIME STEP NUMBER         1500079
 ============================================================= 


 cedric output : friction bot wall =   0.41531296116414379      -0.98141130361066531        1.5406429929612161E-004
 cedric output : friction top wall =   0.41515345482357324       0.98141617430373285        5.3680226704239868E-004

 INSTANT    0.700016000E+04   TIME STEP NUMBER         1500080
 ============================================================= 


 cedric output : friction bot wall =   0.41532327755361570      -0.98143214862208006        1.4757190132664113E-004
 cedric output : friction top wall =   0.41514884693564247       0.98143718488786658        5.3687930873832623E-004
 cedric output : bulk fluid temperature =    7000.1600004702041        1.9354257043661151E-002   4.0699089296800491E-011   1.2498145394197500E-009   7.0852527664291947E-009
 cedric output : bulk solid temperature =    7000.1600004702041       -8.0765900441851501E-002 -0.73392184962348872     

 INSTANT    0.700016200E+04   TIME STEP NUMBER         1500081
 ============================================================= 


 cedric output : friction bot wall =   0.41533377139284605      -0.98144447003218704        1.4097634670132787E-004
 cedric output : friction top wall =   0.41514433870260953       0.98145011521706660        5.3693061259957276E-004

 INSTANT    0.700016400E+04   TIME STEP NUMBER         1500082
 ============================================================= 


 cedric output : friction bot wall =   0.41534448723257167      -0.98144908134635256        1.3429914918348696E-004
 cedric output : friction top wall =   0.41513995295806333       0.98145292513627136        5.3694535504767739E-004

 INSTANT    0.700016600E+04   TIME STEP NUMBER         1500083
 ============================================================= 


 cedric output : friction bot wall =   0.41535546123078027      -0.98144599208671568        1.2755758809674376E-004
 cedric output : friction top wall =   0.41513569562914976       0.98144995175991023        5.3692646436283059E-004

 INSTANT    0.700016800E+04   TIME STEP NUMBER         1500084
 ============================================================= 


 cedric output : friction bot wall =   0.41536672005949826      -0.98143726809958864        1.2076920168125038E-004
 cedric output : friction top wall =   0.41513158335843686       0.98144009257736697        5.3684733269038817E-004

 INSTANT    0.700017000E+04   TIME STEP NUMBER         1500085
 ============================================================= 


 cedric output : friction bot wall =   0.41537828176049418      -0.98142417853046282        1.1394824129226124E-004
 cedric output : friction top wall =   0.41512764102419547       0.98142802792665806        5.3669419083461622E-004

 INSTANT    0.700017200E+04   TIME STEP NUMBER         1500086
 ============================================================= 


 cedric output : friction bot wall =   0.41539015753662623      -0.98140859962585392        1.0710241524051160E-004
 cedric output : friction top wall =   0.41512389707566361       0.98141306171703913        5.3647194492935412E-004

 INSTANT    0.700017400E+04   TIME STEP NUMBER         1500087
 ============================================================= 


 cedric output : friction bot wall =   0.41540235041053231      -0.98139338623023864        1.0023492671719768E-004
 cedric output : friction top wall =   0.41512039158624253       0.98139726946889172        5.3619267872775120E-004

 INSTANT    0.700017600E+04   TIME STEP NUMBER         1500088
 ============================================================= 


 cedric output : friction bot wall =   0.41541486821661905      -0.98137984492274033        9.3346672947976054E-005
 cedric output : friction top wall =   0.41511716969996976       0.98138306111912288        5.3586671765329841E-004

 INSTANT    0.700017800E+04   TIME STEP NUMBER         1500089
 ============================================================= 


 cedric output : friction bot wall =   0.41542772114356585      -0.98136930632079200        8.6438409459912172E-005
 cedric output : friction top wall =   0.41511428287168695       0.98137177043089197        5.3550189551929291E-004

 INSTANT    0.700018000E+04   TIME STEP NUMBER         1500090
 ============================================================= 


 cedric output : friction bot wall =   0.41544091090595037      -0.98135937977193299        7.9511335647138655E-005
 cedric output : friction top wall =   0.41511179395334119       0.98136270601426057        5.3509928212444081E-004
 cedric output : bulk fluid temperature =    7000.1800004702081        1.9354238152967919E-002   4.1839223999254470E-011   1.2621249397401516E-009   7.1229190519589764E-009
 cedric output : bulk solid temperature =    7000.1800004702081       -8.0765826963729276E-002 -0.73392179678033920     

 INSTANT    0.700018200E+04   TIME STEP NUMBER         1500091
 ============================================================= 


 cedric output : friction bot wall =   0.41545444242097374      -0.98134995369962086        7.2566383239565716E-005
 cedric output : friction top wall =   0.41510976701520330       0.98135346297013393        5.3465054058329765E-004

 INSTANT    0.700018400E+04   TIME STEP NUMBER         1500092
 ============================================================= 


 cedric output : friction bot wall =   0.41546832351979479      -0.98134094976622777        6.5607219075295201E-005
 cedric output : friction top wall =   0.41510826311604027       0.98134512613345182        5.3416523625973646E-004

 INSTANT    0.700018600E+04   TIME STEP NUMBER         1500093
 ============================================================= 


 cedric output : friction bot wall =   0.41548255474877205      -0.98133384321583628        5.8636671474109048E-005
 cedric output : friction top wall =   0.41510733216436452       0.98133783301842770        5.3364948384121316E-004

 INSTANT    0.700018800E+04   TIME STEP NUMBER         1500094
 ============================================================= 


 cedric output : friction bot wall =   0.41549712843455228      -0.98132865867866892        5.1656593366773327E-005
 cedric output : friction top wall =   0.41510703861847564       0.98133131789018424        5.3309086723569369E-004

 INSTANT    0.700019000E+04   TIME STEP NUMBER         1500095
 ============================================================= 


 cedric output : friction bot wall =   0.41551204010102560      -0.98132484074976978        4.4666490839782971E-005
 cedric output : friction top wall =   0.41510744522190518       0.98132699902868326        5.3250031608520064E-004

 INSTANT    0.700019200E+04   TIME STEP NUMBER         1500096
 ============================================================= 


 cedric output : friction bot wall =   0.41552729172340364      -0.98132180047316231        3.7665167733880861E-005
 cedric output : friction top wall =   0.41510861833565438       0.98132371590102430        5.3188775021932849E-004

 INSTANT    0.700019400E+04   TIME STEP NUMBER         1500097
 ============================================================= 


 cedric output : friction bot wall =   0.41554287521941924      -0.98131695556407317        3.0653797178911485E-005
 cedric output : friction top wall =   0.41511062546977695       0.98131937702979244        5.3125648812334635E-004

 INSTANT    0.700019600E+04   TIME STEP NUMBER         1500098
 ============================================================= 


 cedric output : friction bot wall =   0.41555877423606491      -0.98130896494215269        2.3637517415478753E-005
 cedric output : friction top wall =   0.41511352790640332       0.98131091085536037        5.3060672661856586E-004

 INSTANT    0.700019800E+04   TIME STEP NUMBER         1500099
 ============================================================= 


 cedric output : friction bot wall =   0.41557498029483025      -0.98129583735438120        1.6627281078112352E-005
 cedric output : friction top wall =   0.41511739320266705       0.98129671438575972        5.2993616057085994E-004

 INSTANT    0.700020000E+04   TIME STEP NUMBER         1500100
 ============================================================= 


 cedric output : friction bot wall =   0.41559148798925899      -0.98127858290740377        9.6411118946921996E-006
 cedric output : friction top wall =   0.41512229083832380       0.98127842273496357        5.2923816181564857E-004
 cedric output : bulk fluid temperature =    7000.2000004702122        1.9354218397788080E-002   4.2952497169069356E-011   1.2732762488791151E-009   7.1680635980046738E-009
 cedric output : bulk solid temperature =    7000.2000004702122       -8.0765751798752311E-002 -0.73392174362052387     

 INSTANT    0.700020200E+04   TIME STEP NUMBER         1500101
 ============================================================= 


 cedric output : friction bot wall =   0.41560828764863855      -0.98125794595386506        2.7034310873594444E-006
 cedric output : friction top wall =   0.41512828233422594       0.98125667102683423        5.2851111626657271E-004

 INSTANT    0.700020400E+04   TIME STEP NUMBER         1500102
 ============================================================= 


 cedric output : friction bot wall =   0.41562537785996262      -0.98123239283456454       -4.1585008741747739E-006
 cedric output : friction top wall =   0.41513540984370789       0.98123136356154261        5.2777568725944734E-004

 INSTANT    0.700020600E+04   TIME STEP NUMBER         1500103
 ============================================================= 


 cedric output : friction bot wall =   0.41564277123806337      -0.98120204229689190       -1.0927187615556648E-005
 cedric output : friction top wall =   0.41514367321461193       0.98120234739139889        5.2704443360547689E-004

 INSTANT    0.700020800E+04   TIME STEP NUMBER         1500104
 ============================================================= 


 cedric output : friction bot wall =   0.41566048307190773      -0.98116609126699328       -1.7596367731767819E-005
 cedric output : friction top wall =   0.41515305422105886       0.98116709916321743        5.2630349999582447E-004

 INSTANT    0.700021000E+04   TIME STEP NUMBER         1500105
 ============================================================= 


 cedric output : friction bot wall =   0.41567853896435436      -0.98112474341414146       -2.4159722382394974E-005
 cedric output : friction top wall =   0.41516353019565755       0.98112468003317366        5.2555379528281682E-004

 INSTANT    0.700021200E+04   TIME STEP NUMBER         1500106
 ============================================================= 


 cedric output : friction bot wall =   0.41569696736121009      -0.98107735531437701       -3.0610622169970308E-005
 cedric output : friction top wall =   0.41517506760344058       0.98107578357992931        5.2478706365696585E-004

 INSTANT    0.700021400E+04   TIME STEP NUMBER         1500107
 ============================================================= 


 cedric output : friction bot wall =   0.41571579652789781      -0.98102513243432732       -3.6938308523169798E-005
 cedric output : friction top wall =   0.41518761898851109       0.98102182995249676        5.2399519853364403E-004

 INSTANT    0.700021600E+04   TIME STEP NUMBER         1500108
 ============================================================= 


 cedric output : friction bot wall =   0.41573505396930577      -0.98096745925138551       -4.3121669102657851E-005
 cedric output : friction top wall =   0.41520112217362687       0.98096351294480810        5.2317435813046067E-004

 INSTANT    0.700021800E+04   TIME STEP NUMBER         1500109
 ============================================================= 


 cedric output : friction bot wall =   0.41575475895868069      -0.98090420737669104       -4.9137663531177391E-005
 cedric output : friction top wall =   0.41521549869594199       0.98090086184072678        5.2232533370284826E-004

 INSTANT    0.700022000E+04   TIME STEP NUMBER         1500110
 ============================================================= 


 cedric output : friction bot wall =   0.41577492404300198      -0.98083588083359730       -5.4968969786732086E-005
 cedric output : friction top wall =   0.41523064808110249       0.98083381067940456        5.2145025760577906E-004
 cedric output : bulk fluid temperature =    7000.2200004702163        1.9354197252812091E-002   4.2590979624656440E-011   1.2849526007388144E-009   7.2244448350129467E-009
 cedric output : bulk solid temperature =    7000.2200004702163       -8.0765673120694437E-002 -0.73392168892863174     

 INSTANT    0.700022200E+04   TIME STEP NUMBER         1500111
 ============================================================= 


 cedric output : friction bot wall =   0.41579556240577498      -0.98076283621314642       -6.0607167715696648E-005
 cedric output : friction top wall =   0.41524643948609019       0.98076117425164955        5.2054873960451871E-004

 INSTANT    0.700022400E+04   TIME STEP NUMBER         1500112
 ============================================================= 


 cedric output : friction bot wall =   0.41581669108056662      -0.98068575804965952       -6.6055500361137997E-005
 cedric output : friction top wall =   0.41526272556341748       0.98068264782400372        5.1961782818508225E-004

 INSTANT    0.700022600E+04   TIME STEP NUMBER         1500113
 ============================================================= 


 cedric output : friction bot wall =   0.41583833390441899      -0.98060462207756138       -7.1321243745763160E-005
 cedric output : friction top wall =   0.41527937195042064       0.98059993128685530        5.1866899388547968E-004

 INSTANT    0.700022800E+04   TIME STEP NUMBER         1500114
 ============================================================= 


 cedric output : friction bot wall =   0.41586051668165475      -0.98051904519518218       -7.6412003436238449E-005
 cedric output : friction top wall =   0.41529625497032452       0.98051346175613696        5.1770298714766795E-004

 INSTANT    0.700023000E+04   TIME STEP NUMBER         1500115
 ============================================================= 


 cedric output : friction bot wall =   0.41588325237937940      -0.98043006369527230       -8.1338924805745790E-005
 cedric output : friction top wall =   0.41531327590288936       0.98042426559328810        5.1670374272646527E-004

 INSTANT    0.700023200E+04   TIME STEP NUMBER         1500116
 ============================================================= 


 cedric output : friction bot wall =   0.41590653814138151      -0.98033624971815603       -8.6109861224963589E-005
 cedric output : friction top wall =   0.41533034084660903       0.98033063624141004        5.1566359122639887E-004

 INSTANT    0.700023400E+04   TIME STEP NUMBER         1500117
 ============================================================= 


 cedric output : friction bot wall =   0.41593036096377867      -0.98023837085146137       -9.0728430970152512E-005
 cedric output : friction top wall =   0.41534735551255231       0.98023351925356006        5.1457625129010644E-004

 INSTANT    0.700023600E+04   TIME STEP NUMBER         1500118
 ============================================================= 


 cedric output : friction bot wall =   0.41595470391211609      -0.98013751266250104       -9.5199339237064513E-005
 cedric output : friction top wall =   0.41536423390473398       0.98013292022200293        5.1343650925179105E-004

 INSTANT    0.700023800E+04   TIME STEP NUMBER         1500119
 ============================================================= 


 cedric output : friction bot wall =   0.41597954284194527      -0.98003405334046123       -9.9530083292189705E-005
 cedric output : friction top wall =   0.41538090241253095       0.98002954047964408        5.1224015484796156E-004

 INSTANT    0.700024000E+04   TIME STEP NUMBER         1500120
 ============================================================= 


 cedric output : friction bot wall =   0.41600484836371110      -0.97992710196277732       -1.0372558650410661E-004
 cedric output : friction top wall =   0.41539729790037805       0.97992328626049741        5.1097966735915617E-004
 cedric output : bulk fluid temperature =    7000.2400004702204        1.9354174381132818E-002   4.2602555132639033E-011   1.2907024200223683E-009   7.2820561998110753E-009
 cedric output : bulk solid temperature =    7000.2400004702204       -8.0765589072720301E-002 -0.73392163126478249     

 INSTANT    0.700024200E+04   TIME STEP NUMBER         1500121
 ============================================================= 


 cedric output : friction bot wall =   0.41603058226510858      -0.97981882377027807       -1.0779181564653589E-004
 cedric output : friction top wall =   0.41541336995736056       0.97981427467966320        5.0963876953376308E-004

 INSTANT    0.700024400E+04   TIME STEP NUMBER         1500122
 ============================================================= 


 cedric output : friction bot wall =   0.41605671196061961      -0.97970699132096439       -1.1173422998425606E-004
 cedric output : friction top wall =   0.41542908288835567       0.97970304835844835        5.0820056777372983E-004

 INSTANT    0.700024600E+04   TIME STEP NUMBER         1500123
 ============================================================= 


 cedric output : friction bot wall =   0.41608320884867350      -0.97959367188706237       -1.1555741852943419E-004
 cedric output : friction top wall =   0.41544441678813049       0.97958899029174173        5.0665119433964225E-004

 INSTANT    0.700024800E+04   TIME STEP NUMBER         1500124
 ============================================================= 


 cedric output : friction bot wall =   0.41611004066350166      -0.97947869927267317       -1.1926481879861745E-004
 cedric output : friction top wall =   0.41545937251141846       0.97947378581173672        5.0497564873755744E-004

 INSTANT    0.700025000E+04   TIME STEP NUMBER         1500125
 ============================================================= 


 cedric output : friction bot wall =   0.41613718081728013      -0.97936084336917251       -1.2285740692429678E-004
 cedric output : friction top wall =   0.41547396744548737       0.97935724111685707        5.0316775238874734E-004

 INSTANT    0.700025200E+04   TIME STEP NUMBER         1500126
 ============================================================= 


 cedric output : friction bot wall =   0.41616460628595597      -0.97924176726132195       -1.2633284793300273E-004
[...]

 INSTANT    0.999998600E+04   TIME STEP NUMBER         2999993
 ============================================================= 


 cedric output : friction bot wall =   0.41693911655765087      -0.95452215330192725        1.2168366189897848E-003
 cedric output : friction top wall =   0.40533976675126837       0.95451564246179033       -2.9735074372830490E-004

 INSTANT    0.999998800E+04   TIME STEP NUMBER         2999994
 ============================================================= 


 cedric output : friction bot wall =   0.41693459681852685      -0.95452772883723058        1.2129283086598293E-003
 cedric output : friction top wall =   0.40533835979520161       0.95452072778340002       -3.0305406139963134E-004

 INSTANT    0.999999000E+04   TIME STEP NUMBER         2999995
 ============================================================= 


 cedric output : friction bot wall =   0.41693016491904566      -0.95453218102061965        1.2088714396102911E-003
 cedric output : friction top wall =   0.40533693388476111       0.95452509588818746       -3.0863806089781595E-004

 INSTANT    0.999999200E+04   TIME STEP NUMBER         2999996
 ============================================================= 


 cedric output : friction bot wall =   0.41692581024007813      -0.95453485221713441        1.2046374080071903E-003
 cedric output : friction top wall =   0.40533545441747909       0.95452803693098820       -3.1409180149649944E-004

 INSTANT    0.999999400E+04   TIME STEP NUMBER         2999997
 ============================================================= 


 cedric output : friction bot wall =   0.41692151594183191      -0.95453432823284601        1.2002010234755244E-003
 cedric output : friction top wall =   0.40533389333911074       0.95452821793560616       -3.1940152352377503E-004

 INSTANT    0.999999600E+04   TIME STEP NUMBER         2999998
 ============================================================= 


 cedric output : friction bot wall =   0.41691725347288489      -0.95453049525370237        1.1955443806052641E-003
 cedric output : friction top wall =   0.40533224679860186       0.95452513873511702       -3.2454870414416254E-004

 INSTANT    0.999999800E+04   TIME STEP NUMBER         2999999
 ============================================================= 




   ** BOUNDARY MASS FLOW INFORMATION
      ------------------------------

---------------------------------------------------------------
Boundary type          Code    Nb faces           Mass flow
---------------------------------------------------------------
Inlet                     2           0         0.000000000E+00
Smooth wall               5      240000         0.000000000E+00
Rough wall                6           0         0.000000000E+00
Symmetry                  4           0         0.000000000E+00
Free outlet               3           0         0.000000000E+00
Free inlet               14           0         0.000000000E+00
Convective inlet         16           0         0.000000000E+00
Free surface             15           0         0.000000000E+00
Undefined                 1           0         0.000000000E+00
---------------------------------------------------------------

 cedric output : friction bot wall =   0.41691299762568967      -0.95452317474182102        1.1906476055589894E-003
 cedric output : friction top wall =   0.40533052058512659       0.95451744198625821       -3.2951605508702996E-004

 INSTANT    0.100000000E+05   TIME STEP NUMBER         3000000
 ============================================================= 




   ** BOUNDARY MASS FLOW INFORMATION
      ------------------------------

---------------------------------------------------------------
Boundary type          Code    Nb faces           Mass flow
---------------------------------------------------------------
Inlet                     2           0         0.000000000E+00
Smooth wall               5      240000         0.000000000E+00
Rough wall                6           0         0.000000000E+00
Symmetry                  4           0         0.000000000E+00
Free outlet               3           0         0.000000000E+00
Free inlet               14           0         0.000000000E+00
Convective inlet         16           0         0.000000000E+00
Free surface             15           0         0.000000000E+00
Undefined                 1           0         0.000000000E+00
---------------------------------------------------------------


   ** BOUNDARY CONDITIONS FOR SMOOTH WALLS
   ---------------------------------------
------------------------------------------------------------
                                         Minimum     Maximum
------------------------------------------------------------
   Rel velocity at the wall uiptn :  0.00000E+00 0.00000E+00
   Friction velocity        uet   :  0.00000E+00 0.31130E+00
   Friction velocity        uk    :  0.00000E+00 0.31130E+00
   Dimensionless distance   yplus :  0.00000E+00 0.10776E+01
   ------------------------------------------------------
   Nb of reversal of the velocity at the wall   :          0
   Nb of faces within the viscous sub-layer     :     240000
   Total number of wall faces                   :     240000
------------------------------------------------------------


 cedric output : friction bot wall =   0.41690871798300100      -0.95451171562844295        1.1854940912842291E-003
 cedric output : friction top wall =   0.40532872857678293       0.95450449090497702       -3.3428782689262231E-004
 cedric output : bulk fluid temperature =    10000.000001081351        1.9352005065654047E-002   3.7067180796151635E-011   1.1957337541202418E-009   6.1213099285212870E-009
 cedric output : bulk solid temperature =    10000.000001081351       -8.0771621733927157E-002 -0.73391559590113242     


 Write final restart files
   checkpoint at iteration    3000000, Physical time    0.10000E+05


   ** Writing the main restart file
      -----------------------------

 Start writing
  Wrote field names and types to checkpoint: checkpoint/main
   End writing the options                              
  Wrote main variables to checkpoint: checkpoint/main
 End writing

   ** Writing the auxiliary restart file
      ----------------------------------

 Start writing
   End writing the dimensions and options               
   End writing the physical properties                  
   End writing the time step                            
  Wrote boundary condition coefficients to checkpoint: checkpoint/auxiliary
   End writing the source terms                         
 End writing

   ** INFORMATION ON CONVERGENCE
      --------------------------
----------------------------------------------------------------------------
   Variable     Rhs norm      N_iter  Norm. residual   Drift   Time residual
----------------------------------------------------------------------------
c  Velocity     0.25632E+02       7   0.10200E-04   0.13359E+00 0.29120E+01 
c  Velocity[X]                                      0.45636E-01 
c  Velocity[Y]                                      0.39616E-01 
c  Velocity[Z]                                      0.48343E-01 
c  Pressure     0.32471E-03       8   0.67166E-05   0.14070E+00 0.35234E+02 
c  diric        0.16655E+00       7   0.91518E-05   0.33245E-05 0.22322E+01 
c  neuma        0.17338E-01       9   0.88297E-04   0.33106E-05 0.15264E+02 
c  11           0.26874E+00       4   0.77029E-04   0.30365E-05 0.11261E+01 
c  12           0.14065E+01       3   0.14746E-04   0.30740E-05 0.11927E+00 
----------------------------------------------------------------------------
  
  

  ** Clippings for computed fields
     -----------------------------

   field     initial min     initial max  clips to min  clips to max
-  -----  --------------  --------------  ------------  ------------
a  diric
a  neuma
a  11   
a  12   


  ** Computed fields on cells
     ------------------------

   field                        minimum         maximum        set mean    spatial mean
-  --------------------  --------------  --------------  --------------  --------------
v  Velocity[X]                        0          4.2503          1.9193          2.5827
v  Velocity[Y]                 -0.97299         0.74911      4.5352e-11      8.8126e-09
v  Velocity[Z]                  -1.0595          1.2035     -0.00063511      -0.0012278
v  Velocity                         0          4.2846          1.9247          2.5882
v  Pressure                    -0.62918         0.45881      -0.0034545     -2.1726e-16
v  diric                              0        0.028044         0.01261        0.016871
v  neuma                      -0.029926       0.0090152      -0.0015989     -5.7456e-20
v  11                          -0.14847        0.021908      -0.0064717     -1.5322e-17
v  12                           -1.4839         0.11889       -0.029602      4.4126e-17
v  Laminar Viscosity          0.0001416       0.0001416       0.0001416       0.0001416
v  Turb Viscosity                     0       0.0034912      8.0848e-05      0.00010826
v  CFL                                0         0.82531         0.14576         0.18893
v  Fourier Number             0.0046049         0.93347        0.067647        0.020292
v  Total Pressure            1.0132e+05      1.0133e+05      1.0132e+05      1.0133e+05
v  11 Diff                    0.0001416       0.0001416       0.0001416       0.0001416
v  12 Diff                   1.2665e-05       0.0001416      0.00010744      0.00012507
v  11 Rho                             1               1               1               1
v  12 Rho                       0.44721               1         0.85354         0.92913
m  mu_t                               0      0.00021605       8.178e-05
m  u_mean[X]                          0          3.3807          1.9212
m  u_mean[Y]                 -0.0038285       0.0037054      1.2654e-10
m  u_mean[Z]                 -0.0061216       0.0046478     -0.00034286
m  u_mean                           0          3.3807          1.9212
m  rij[XX]                            0         0.20784        0.039871
m  rij[YY]                            0        0.025633        0.010302
m  rij[ZZ]                            0        0.038349        0.016019
m  rij[XY]                    -0.019744        0.019427     -4.2574e-07
m  rij[YZ]                  -0.00053176      0.00055541      -2.873e-06
m  rij[XZ]                   -0.0020107       0.0018199      3.6178e-06
m  diric_mean                         0        0.021592        0.012616
m  diric_variance                     0      1.0414e-05      1.9132e-06
m  diric_flux[X]                      0        0.073016        0.036187
m  diric_flux[Y]            -0.00018789       0.0001858     -9.5672e-09
m  diric_flux[Z]             -8.754e-05      7.4441e-05     -6.9851e-06
m  diric_flux                       0        0.073016        0.036187
m  neuma_mean                 -0.018975       0.0022253      -0.0016079
m  neuma_variance                     0      1.2688e-05      2.4615e-06
m  neuma_flux[X]              -0.012454       0.0075462     -0.00099486
m  neuma_flux[Y]            -0.00014538      0.00014231     -7.4386e-09
m  neuma_flux[Z]             -3.973e-05      4.4121e-05     -3.3266e-07
m  neuma_flux                       0        0.012454       0.0043003
m  11_mean                     -0.14794         0.01416      -0.0064861
m  11_variance               3.0784e-08      1.1371e-05      2.2746e-06
m  11_flux[X]                -0.0015599        0.047894        0.021831
m  11_flux[Y]               -0.00015882      0.00015738     -7.8048e-09
m  11_flux[Z]               -4.4511e-05      4.0108e-05     -4.4089e-06
m  11_flux                          0        0.047894        0.021924
m  12_mean                      -1.4836         0.11015       -0.029616
m  12_variance               3.8182e-09        1.23e-05      2.5145e-06
m  12_flux[X]                         0         0.37242         0.20638
m  12_flux[Y]                -0.0005211       0.0005118      -7.679e-09
m  12_flux[Z]               -0.00062832      0.00048696     -3.7333e-05
m  12_flux                          0         0.37242         0.20638
m  u_grad[XX]                 -0.038202        0.035379     -2.2888e-11
m  u_grad[XY]                    -149.5          150.44     -0.00096893
m  u_grad[XZ]                  -0.63428         0.69215     -4.9824e-09
m  u_grad[YX]                -0.0066824       0.0067438     -4.1372e-12
m  u_grad[YY]                  -0.11784          0.1141     -8.0251e-07
m  u_grad[YZ]                  -0.11474         0.10899      3.1803e-09
m  u_grad[ZX]                 -0.010057       0.0098305      2.0555e-12
m  u_grad[ZY]                  -0.66731         0.87624       0.0016215
m  u_grad[ZZ]                  -0.11811         0.12287     -2.6319e-09
m  u_diss[XX]                         0          25.718          4.5986
m  u_diss[XY]                         0          4062.2          275.44
m  u_diss[XZ]                         0          385.34          46.173
m  u_diss[YX]                         0           6.316          1.9878
m  u_diss[YY]                         0          33.261          6.9561
m  u_diss[YZ]                         0          34.898          8.0709
m  u_diss[ZX]                         0           9.332          3.0623
m  u_diss[ZY]                         0          1051.5          58.241
m  u_diss[ZZ]                         0          39.089           8.373
m  mu_t_u_grad[XX]          -9.7862e-08      0.00018473      3.1851e-05
m  mu_t_u_grad[XY]          -0.00052873      0.00053075      2.3576e-08
m  mu_t_u_grad[XZ]          -5.1786e-05      5.8648e-05     -2.0563e-08
m  mu_t_u_grad[YX]          -5.8565e-05      5.7446e-05      6.1322e-09
m  mu_t_u_grad[YY]          -0.00017233      3.1848e-06     -2.5408e-05
m  mu_t_u_grad[YZ]          -6.5731e-05      6.1595e-05       3.828e-08
m  mu_t_u_grad[ZX]          -1.5818e-05      1.5747e-05      5.1342e-09
m  mu_t_u_grad[ZY]           -7.795e-05      7.2869e-05     -6.5879e-08
m  mu_t_u_grad[ZZ]          -5.7245e-05      4.3726e-05     -2.5616e-06
m  mu_t_u_diss                        0        0.091952        0.019158
m  diric_grad[X]            -0.00026638      0.00024976      -3.388e-13
m  diric_grad[Y]                -1.0167          1.0221     -1.7533e-06
m  diric_grad[Z]             -0.0041478       0.0044264     -2.8792e-11
m  diric_grad                       0          1.0221        0.082966
m  diric_diss[XX]                     0        0.001878      0.00034987
m  diric_diss[YY]                     0         0.20544        0.014841
m  diric_diss[ZZ]                     0        0.019099       0.0023456
m  diric_diss[XY]            -0.0084294       0.0084146     -2.6534e-07
m  diric_diss[YZ]           -0.00084467      0.00080265      3.8669e-07
m  diric_diss[XZ]           -0.00011266      0.00012011      2.6831e-08
m  diric_mu_t_t_grad[X]     -1.4714e-09      2.7673e-06      5.7104e-07
m  diric_mu_t_t_grad[Y]     -5.6418e-06      5.6654e-06      4.7923e-10
m  diric_mu_t_t_grad[Z]     -3.7421e-07       3.777e-07     -7.8329e-11
m  diric_mu_t_t_grad                0      5.9558e-06      1.2281e-06
m  diric_mu_t_t_diss                  0      3.7179e-06      6.4875e-07
m  neuma_grad[X]            -0.00037212      0.00034293     -6.3259e-13
m  neuma_grad[Y]                -0.9987         0.99871     -3.8627e-06
m  neuma_grad[Z]             -0.0060842       0.0058193     -9.4699e-11
m  neuma_grad                       0         0.99871        0.082077
m  neuma_diss[XX]                     0       0.0019537      0.00036604
m  neuma_diss[YY]                     0         0.14717        0.011901
m  neuma_diss[ZZ]                     0        0.021202       0.0029783
m  neuma_diss[XY]            -0.0090627       0.0091198      -2.483e-07
m  neuma_diss[YZ]            -0.0010594      0.00097493      4.1416e-07
m  neuma_diss[XZ]           -0.00012383      0.00013584      6.7835e-08
m  neuma_mu_t_t_grad[X]     -8.7547e-10      2.7878e-06      5.7194e-07
m  neuma_mu_t_t_grad[Y]     -5.3886e-06      5.4182e-06      4.5745e-10
m  neuma_mu_t_t_grad[Z]     -3.9562e-07      3.9172e-07     -3.9635e-11
m  neuma_mu_t_t_grad                0      5.7545e-06      1.2022e-06
m  neuma_mu_t_t_diss                  0      3.8734e-06      6.6591e-07
m  11_grad[X]               -0.00031248      0.00029543      -1.125e-12
m  11_grad[Y]                   -1.0052           1.005     -4.6323e-06
m  11_grad[Z]                -0.0052207       0.0051309     -1.2056e-10
m  11_grad                  1.086e-06          1.0052         0.34704
m  11_diss[XX]               2.4957e-09       0.0018741      0.00034212
m  11_diss[YY]               7.9956e-08         0.13574        0.013812
m  11_diss[ZZ]               5.9244e-07        0.020038       0.0026304
m  11_diss[XY]               -0.0088062       0.0088646     -2.2183e-07
m  11_diss[YZ]              -0.00094411      0.00086372      3.6078e-07
m  11_diss[XZ]              -0.00011438      0.00013094      4.0798e-08
m  11_mu_t_t_grad[X]        -1.1423e-09      2.5318e-06      5.1963e-07
m  11_mu_t_t_grad[Y]        -5.3015e-06      5.3475e-06      3.5424e-10
m  11_mu_t_t_grad[Z]        -3.8116e-07      3.8313e-07     -5.7045e-11
m  11_mu_t_t_grad                   0      5.6255e-06      1.1856e-06
m  11_mu_t_t_diss                     0      3.7375e-06      6.4897e-07
m  12_grad[X]               -0.00036199      0.00034053     -1.1668e-12
m  12_grad[Y]                   -11.204          11.204     -2.4208e-06
m  12_grad[Z]                -0.0059531       0.0056502     -1.6223e-10
m  12_grad                 8.6219e-07          11.204           3.047
m  12_diss[XX]               2.6533e-10       0.0019198      0.00035127
m  12_diss[YY]               2.9667e-08         0.67177        0.022886
m  12_diss[ZZ]               1.0365e-07        0.021045       0.0029589
m  12_diss[XY]               -0.0091981       0.0092609     -2.3015e-07
m  12_diss[YZ]               -0.0021876       0.0020746      2.3155e-07
m  12_diss[XZ]              -0.00012078      0.00013708      5.5712e-08
m  12_mu_t_t_grad[X]        -9.2399e-10      2.5262e-06      5.1572e-07
m  12_mu_t_t_grad[Y]        -5.1407e-06       5.178e-06      3.6272e-10
m  12_mu_t_t_grad[Z]        -3.8465e-07      3.7861e-07     -4.6685e-11
m  12_mu_t_t_grad                   0      5.4649e-06      1.1492e-06
m  12_mu_t_t_diss                     0      3.8369e-06      6.5829e-07

  ** Computed fields on boundary_faces
     ---------------------------------

   field         minimum         maximum        set mean    spatial mean
-  -----  --------------  --------------  --------------  --------------
v  Yplus               0          1.0776         0.16547         0.16547


  ** Computed values on cells
     ------------------------

   criterion               minimum         maximum        set mean    spatial mean
   ---------------  --------------  --------------  --------------  --------------
   Courant/Fourier       0.0046049          1.1705          0.2134         0.20922


  ** Temporal moment accumulated weights
     -----------------------------------

   id   n it.             value
   ---- -------- --------------
   0    1499991            3000


===============================================================



                 FINAL STAGE OF THE CALCULATION              
                 ==============================              


 =========================================================== 





 =========================================================== 




                      END OF CALCULATION                     
                      ==================                     


===============================================================

 Destroying structures and ending computation
