command: 
 ./cs_solver

***************************************************************

                                  (R)
                      Code_Saturne

                      Version 5.0-beta


  Copyright (C) 1998-2017 EDF S.A., France

  revision svn9899-git84a821755bcfeea62ba8df5522299f889d7778bf
  build Fri 10 Mar 2017 01:23:40 PM CET
  MPI version 3.0 (Open MPI 1.8.5)


  The Code_Saturne CFD tool  is free software;
  you can redistribute it and/or modify it under the terms
  of the GNU General Public License as published by the
  Free Software Foundation; either version 2 of the License,
  or (at your option) any later version.

  The Code_Saturne CFD tool is distributed in the hope that
  it will be useful, but WITHOUT ANY WARRANTY; without even
  the implied warranty of MERCHANTABILITY or FITNESS FOR A
  PARTICULAR PURPOSE.  See the GNU General Public License
  for more details.

***************************************************************


Local case configuration:

  Date:                Fri 10 Mar 2017 01:38:19 PM CET
  System:              Linux 3.0.42-0.7-default
  Machine:             razor41
  Processor:           model name	: Intel(R) Xeon(R) CPU E5-2697 v3 @ 2.60GHz
  Memory:              258242 MB
  User:                flageul (Cedric Flageul)
  Directory:           /home/r4/flageul/saturne/channel_150_cht/wale/RESU/bigrun
  MPI ranks:           56 (appnum attribute: 0)
  I/O read method:     collective MPI-IO (explicit offsets)
    hints:
      romio_cb_read: automatic
      romio_cb_write: automatic
      romio_ds_read: disable
      romio_ds_write: disable
  I/O write method:    collective MPI-IO (explicit offsets)
    hints:
      romio_cb_read: automatic
      romio_cb_write: automatic
      romio_ds_read: disable
      romio_ds_write: disable
  I/O rank step:        1

  External libraries for partitioning:
    PT-SCOTCH 6.0.4

 Reading metadata from file: "mesh_input"

===============================================================

                   CALCULATION PREPARATION
                   =======================


 ===========================================================



@
@@@@@@@@@@@@@@@@@@@@@@@@@@@@@@@@@@@@@@@@@@@@@@@@@@@@@@@@@@@@@
@
@ @@   WARNING :      WHEN READING INPUT DATA
@    =========
@   NON-STANDARD CHOICE WITH  TIME-SCHEME
@
@   ORDRE 2 EN TEMPS or the
@   THE VALUE RECOMMANDED FOR THE PARAMETER NSWRSM FOR
@        VARIABLEPressure         IS        10
@     NSWRSM IS NOW IMPOSED AS         5
@
@  computation will go on
@
@ Check the input data given through the User Interface
@   or in cs_user_parameters.f90.
@
@
@@@@@@@@@@@@@@@@@@@@@@@@@@@@@@@@@@@@@@@@@@@@@@@@@@@@@@@@@@@@@
@

@
@@@@@@@@@@@@@@@@@@@@@@@@@@@@@@@@@@@@@@@@@@@@@@@@@@@@@@@@@@@@@
@
@ @@   WARNING :      WHEN READING INPUT DATA
@    =========
@   NON-STANDARD CHOICE WITH  TIME-SCHEME
@
@   ORDRE 2 EN TEMPS or the
@   THE VALUE RECOMMANDED FOR THE PARAMETER NSWRSM FOR
@        VARIABLEPressure         IS        10
@     NSWRSM IS NOW IMPOSED AS         5
@
@  computation will go on
@
@ Check the input data given through the User Interface
@   or in cs_user_parameters.f90.
@
@
@@@@@@@@@@@@@@@@@@@@@@@@@@@@@@@@@@@@@@@@@@@@@@@@@@@@@@@@@@@@@
@

@
@@@@@@@@@@@@@@@@@@@@@@@@@@@@@@@@@@@@@@@@@@@@@@@@@@@@@@@@@@@@@
@
@ @@   WARNING :      WHEN READING INPUT DATA
@    =========
@   NON-STANDARD CHOICE WITH  TIME-SCHEME
@
@   ORDRE 2 EN TEMPS or the
@   THE VALUE RECOMMANDED FOR THE PARAMETER NSWRSM FOR
@        VARIABLEPressure         IS        10
@     NSWRSM IS NOW IMPOSED AS         5
@
@  computation will go on
@
@ Check the input data given through the User Interface
@   or in cs_user_parameters.f90.
@
@
@@@@@@@@@@@@@@@@@@@@@@@@@@@@@@@@@@@@@@@@@@@@@@@@@@@@@@@@@@@@@
@

@
@@@@@@@@@@@@@@@@@@@@@@@@@@@@@@@@@@@@@@@@@@@@@@@@@@@@@@@@@@@@@
@
@ @@   WARNING :      WHEN READING INPUT DATA
@    =========
@   NON-STANDARD CHOICE WITH  TIME-SCHEME
@
@   ORDRE 2 EN TEMPS or the
@   THE VALUE RECOMMANDED FOR THE PARAMETER NSWRSM FOR
@        VARIABLEPressure         IS        10
@     NSWRSM IS NOW IMPOSED AS         5
@
@  computation will go on
@
@ Check the input data given through the User Interface
@   or in cs_user_parameters.f90.
@
@
@@@@@@@@@@@@@@@@@@@@@@@@@@@@@@@@@@@@@@@@@@@@@@@@@@@@@@@@@@@@@
@

@
@@@@@@@@@@@@@@@@@@@@@@@@@@@@@@@@@@@@@@@@@@@@@@@@@@@@@@@@@@@@@
@
@ @@   WARNING :      WHEN READING INPUT DATA
@    =========
@   NON-STANDARD CHOICE WITH  TIME-SCHEME
@
@   ORDRE 2 EN TEMPS or the
@   THE VALUE RECOMMANDED FOR THE PARAMETER NSWRSM FOR
@        VARIABLEPressure         IS        10
@     NSWRSM IS NOW IMPOSED AS         5
@
@  computation will go on
@
@ Check the input data given through the User Interface
@   or in cs_user_parameters.f90.
@
@
@@@@@@@@@@@@@@@@@@@@@@@@@@@@@@@@@@@@@@@@@@@@@@@@@@@@@@@@@@@@@
@

@
@@@@@@@@@@@@@@@@@@@@@@@@@@@@@@@@@@@@@@@@@@@@@@@@@@@@@@@@@@@@@
@
@ @@   WARNING :      WHEN READING INPUT DATA
@    =========
@   NON-STANDARD CHOICE WITH  TIME-SCHEME
@
@   ORDRE 2 EN TEMPS or the
@   THE VALUE RECOMMANDED FOR THE PARAMETER NSWRSM FOR
@        VARIABLEPressure         IS        10
@     NSWRSM IS NOW IMPOSED AS         5
@
@  computation will go on
@
@ Check the input data given through the User Interface
@   or in cs_user_parameters.f90.
@
@
@@@@@@@@@@@@@@@@@@@@@@@@@@@@@@@@@@@@@@@@@@@@@@@@@@@@@@@@@@@@@
@

@
@@@@@@@@@@@@@@@@@@@@@@@@@@@@@@@@@@@@@@@@@@@@@@@@@@@@@@@@@@@@@
@
@ @@   WARNING :      WHEN READING INPUT DATA
@    =========
@   NON-STANDARD CHOICE WITH  TIME-SCHEME
@
@   ORDRE 2 EN TEMPS or the
@   THE VALUE RECOMMANDED FOR THE PARAMETER NSWRSM FOR
@        VARIABLEPressure         IS        10
@     NSWRSM IS NOW IMPOSED AS         5
@
@  computation will go on
@
@ Check the input data given through the User Interface
@   or in cs_user_parameters.f90.
@
@
@@@@@@@@@@@@@@@@@@@@@@@@@@@@@@@@@@@@@@@@@@@@@@@@@@@@@@@@@@@@@
@

@
@@@@@@@@@@@@@@@@@@@@@@@@@@@@@@@@@@@@@@@@@@@@@@@@@@@@@@@@@@@@@
@
@ @@   WARNING :      WHEN READING INPUT DATA
@    =========
@   NON-STANDARD CHOICE WITH  TIME-SCHEME
@
@   ORDRE 2 EN TEMPS or the
@   THE VALUE RECOMMANDED FOR THE PARAMETER NSWRSM FOR
@        VARIABLEPressure         IS        10
@     NSWRSM IS NOW IMPOSED AS         5
@
@  computation will go on
@
@ Check the input data given through the User Interface
@   or in cs_user_parameters.f90.
@
@
@@@@@@@@@@@@@@@@@@@@@@@@@@@@@@@@@@@@@@@@@@@@@@@@@@@@@@@@@@@@@
@

@
@@@@@@@@@@@@@@@@@@@@@@@@@@@@@@@@@@@@@@@@@@@@@@@@@@@@@@@@@@@@@
@
@ @@   WARNING :      WHEN READING INPUT DATA
@    =========
@   NON-STANDARD CHOICE WITH  TIME-SCHEME
@
@   ORDRE 2 EN TEMPS or the
@   THE VALUE RECOMMANDED FOR THE PARAMETER NSWRSM FOR
@        VARIABLEPressure         IS        10
@     NSWRSM IS NOW IMPOSED AS         5
@
@  computation will go on
@
@ Check the input data given through the User Interface
@   or in cs_user_parameters.f90.
@
@
@@@@@@@@@@@@@@@@@@@@@@@@@@@@@@@@@@@@@@@@@@@@@@@@@@@@@@@@@@@@@
@

@
@@@@@@@@@@@@@@@@@@@@@@@@@@@@@@@@@@@@@@@@@@@@@@@@@@@@@@@@@@@@@
@
@ @@   WARNING :      WHEN READING INPUT DATA
@    =========
@   NON-STANDARD CHOICE WITH  TIME-SCHEME
@
@   ORDRE 2 EN TEMPS or the
@   THE VALUE RECOMMANDED FOR THE PARAMETER NSWRSM FOR
@        VARIABLEPressure         IS        10
@     NSWRSM IS NOW IMPOSED AS         5
@
@  computation will go on
@
@ Check the input data given through the User Interface
@   or in cs_user_parameters.f90.
@
@
@@@@@@@@@@@@@@@@@@@@@@@@@@@@@@@@@@@@@@@@@@@@@@@@@@@@@@@@@@@@@
@

@
@@@@@@@@@@@@@@@@@@@@@@@@@@@@@@@@@@@@@@@@@@@@@@@@@@@@@@@@@@@@@
@
@ @@   WARNING :      WHEN READING INPUT DATA
@    =========
@   NON-STANDARD CHOICE WITH  TIME-SCHEME
@
@   ORDRE 2 EN TEMPS or the
@   THE VALUE RECOMMANDED FOR THE PARAMETER NSWRSM FOR
@        VARIABLEPressure         IS        10
@     NSWRSM IS NOW IMPOSED AS         5
@
@  computation will go on
@
@ Check the input data given through the User Interface
@   or in cs_user_parameters.f90.
@
@
@@@@@@@@@@@@@@@@@@@@@@@@@@@@@@@@@@@@@@@@@@@@@@@@@@@@@@@@@@@@@
@

@
@@@@@@@@@@@@@@@@@@@@@@@@@@@@@@@@@@@@@@@@@@@@@@@@@@@@@@@@@@@@@
@
@ @@   WARNING :      WHEN READING INPUT DATA
@    =========
@   CHOICE OF TIME-SCHEME
@
@     TIME-SCHEME FOR VELOCITY IS SECOND ORDER
@       (THETAV =   0.50E+00)
@     CERTAIN TERMS ARE HOWEVER FIRST ORDER IN TIME  WITH
@       THE FOLLOWING SETTINGS:
@
@ parameters       ISTMPF ISNO2T ISTO2T IROEXT IVIEXT ICPEXT
@ Values  entered      2      1      0      0      0      0
@
@  computation will go on.
@
@ Check the input data given through the User Interface
@   or in cs_user_parameters.f90.
@
@
@@@@@@@@@@@@@@@@@@@@@@@@@@@@@@@@@@@@@@@@@@@@@@@@@@@@@@@@@@@@@
@


Warning in LES, while reading convection scheme parameters for variable diric
-------
Parameter: var_cal_opt.isstpc (slope test) = 1
while its recommended value is equal to 0.

Warning in LES, while reading convection scheme parameters for variable neuma
-------
Parameter: var_cal_opt.isstpc (slope test) = 1
while its recommended value is equal to 0.

Warning in LES, while reading convection scheme parameters for variable g05a05
-------
Parameter: var_cal_opt.isstpc (slope test) = 1
while its recommended value is equal to 0.

Warning in LES, while reading convection scheme parameters for variable g05a1
-------
Parameter: var_cal_opt.isstpc (slope test) = 1
while its recommended value is equal to 0.

Warning in LES, while reading convection scheme parameters for variable g05a2
-------
Parameter: var_cal_opt.isstpc (slope test) = 1
while its recommended value is equal to 0.

Warning in LES, while reading convection scheme parameters for variable g1a05
-------
Parameter: var_cal_opt.isstpc (slope test) = 1
while its recommended value is equal to 0.

Warning in LES, while reading convection scheme parameters for variable g1a1
-------
Parameter: var_cal_opt.isstpc (slope test) = 1
while its recommended value is equal to 0.

Warning in LES, while reading convection scheme parameters for variable g1a2
-------
Parameter: var_cal_opt.isstpc (slope test) = 1
while its recommended value is equal to 0.

Warning in LES, while reading convection scheme parameters for variable g2a05
-------
Parameter: var_cal_opt.isstpc (slope test) = 1
while its recommended value is equal to 0.

Warning in LES, while reading convection scheme parameters for variable g2a1
-------
Parameter: var_cal_opt.isstpc (slope test) = 1
while its recommended value is equal to 0.

Warning in LES, while reading convection scheme parameters for variable g2a2
-------
Parameter: var_cal_opt.isstpc (slope test) = 1
while its recommended value is equal to 0.

 No error detected during the data verification
                          cs_user_parameters.f90 and others).


 ===========================================================

               CALCULATION PARAMETERS SUMMARY
               ==============================

 -----------------------------------------------------------


 ** DIMENSIONS
    ----------

 --- Physics
       NVAR   =             15 (Nb variables                )
       NSCAL  =             11 (Nb scalars                  )
       NSCAUS =             11 (Nb user scalars             )
       NSCAPP =              0 (Nb specific physics scalars )


 -----------------------------------------------------------


 ** VOF METHOD                              
    ----------------------------------------

       IVOFMT =             -1 ( -1: inactive                )
                               (  0: active                  )


 ** HOMOGENEOUS MIXTURE MODEL FOR CAVITATION
    ----------------------------------------

       ICAVIT =             -1 (-1: single phase flow       )
                               ( 0: no vap./cond. model     )
                               ( 1: Merkle's model        )


 -----------------------------------------------------------


 ** TIME STEPPING
    -------------

 --- Per-variable properties

------------------------------------
 Variable          ISTAT      CDTVAR
------------------------------------
 Velocity              1  0.1000E+01
 Pressure              0  0.1000E+01
 diric                 1  0.1000E+01
 neuma                 1  0.1000E+01
 g05a05                1  0.1000E+01
 g05a1                 1  0.1000E+01
 g05a2                 1  0.1000E+01
 g1a05                 1  0.1000E+01
 g1a1                  1  0.1000E+01
 g1a2                  1  0.1000E+01
 g2a05                 1  0.1000E+01
 g2a1                  1  0.1000E+01
 g2a2                  1  0.1000E+01
----------------------------

       ISTAT  =  0 ou  1       (1 for unsteady              )
       CDTVAR >  0             (time step multiplier        )

 --- Order of base time stepping scheme
       ISCHTP =              2 (1: order 1; 2: order 2      )
                                                             

 -----------------------------------------------------------


 ** STOKES
    ------

  -- Phase continue :

       ISTMPF =              2 (time scheme for flow
                               (0: explicit (THETFL = 0     )
                               (1: std scheme (Saturne 1.0  )
                               (2: 2nd-order (THETFL = 0.5  )
       THETFL =    0.50000E+00 (theta for mass flow         )
       IROEXT =              0 (density extrapolation
                               (0: explicit
                               (1: n+thetro with thetro=1/2
                               (2: n+thetro with thetro=1
       THETRO =    0.00000E+00 (theta for density
                               ((1+theta).new-theta.old
       IVIEXT =              0 (total viscosity extrapolation
                               (0: explicit
                               (1: n+thetvi with thetro=1/2
                               (2: n+thetvi with thetro=1
       THETVI =    0.00000E+00 (theta for total viscosity
                               ((1+theta).new-theta.old
       ICPEXT =              0 (specific heat extrapolation
                               (0: explicit
                               (1: n+thetcp with thetro=1/2
                               (2: n+thetcp with thetro=1
       THETCP =    0.00000E+00 (specific heat theta-scheme
                               ((1+theta).new-theta.old
       THETSN =    0.50000E+00 (Nav-Stokes S.T. theta scheme)
                               ((1+theta).new-theta.old
       THETST =    0.00000E+00 (Turbulence S.T. theta-scheme)
                               ((1+theta).new-theta.old
       EPSUP  =    0.10000E-04 (Velocity/pressure coupling
                                stop test                   )


 -----------------------------------------------------------


 ** BASE ITERATIVE SOLVERS
    ----------------------

------------------------------------
 Variable              EPSILO IDIRCL
------------------------------------
 Velocity          0.1000E-04      1
 Pressure          0.1000E-04      1
 diric             0.1000E-04      1
 neuma             0.1000E-04      1
 g05a05            0.1000E-04      1
 g05a1             0.1000E-04      1
 g05a2             0.1000E-04      1
 g1a05             0.1000E-04      1
 g1a1              0.1000E-04      1
 g1a2              0.1000E-04      1
 g2a05             0.1000E-04      1
 g2a1              0.1000E-04      1
 g2a2              0.1000E-04      1
------------------------------------

       IRESOL =            -1  (automatic solver choice     )
                IPOL*1000 + 0  (p conjuguate gradient       )
                            1  (Jacobi                      )
                IPOL*1000 + 2  (bicgstab                    )
                  avec IPOL    (preconditioning degree      )
       NITMAX =                (max number of iterations    )
       EPSILO =                (resolution precision        )
       IDIRCL = 0 ou 1         (shift diagonal if   
                                ISTAT=0 and no Dirichlet    )


 -----------------------------------------------------------


 ** SCALARS
    -------

       ITBRRB =              0 (T or H reconstruction at bdy)

-------------------------------------------------------------
 Variable         Number ISCACP  ITURT     VISLS0      SIGMAS
-------------------------------------------------------------
 diric                 1      0      0  0.6054E-03  0.1000E+01
 neuma                 2      0      0  0.6054E-03  0.1000E+01
 g05a05                3      0      0  0.6054E-03  0.1000E+01
 g05a1                 4      0      0  0.6054E-03  0.1000E+01
 g05a2                 5      0      0  0.6054E-03  0.1000E+01
 g1a05                 6      0      0  0.6054E-03  0.1000E+01
 g1a1                  7      0      0  0.6054E-03  0.1000E+01
 g1a2                  8      0      0  0.6054E-03  0.1000E+01
 g2a05                 9      0      0  0.6054E-03  0.1000E+01
 g2a1                 10      0      0  0.6054E-03  0.1000E+01
 g2a2                 11      0      0  0.6054E-03  0.1000E+01
-------------------------------------------------------------

------------------------------------
 Variable         Number      RVARFL
------------------------------------
 diric                 1  0.8000E+00
 neuma                 2  0.8000E+00
 g05a05                3  0.8000E+00
 g05a1                 4  0.8000E+00
 g05a2                 5  0.8000E+00
 g1a05                 6  0.8000E+00
 g1a1                  7  0.8000E+00
 g1a2                  8  0.8000E+00
 g2a05                 9  0.8000E+00
 g2a1                 10  0.8000E+00
 g2a2                 11  0.8000E+00
-------------------------------------------

-------------------------------------------------------
 Variable         Number ICLVFL      SCAMIN      SCAMAX
-------------------------------------------------------
 diric                 1     -1 -0.1000E+13  0.1000E+13
 neuma                 2     -1 -0.1000E+13  0.1000E+13
 g05a05                3     -1 -0.1000E+13  0.1000E+13
 g05a1                 4     -1 -0.1000E+13  0.1000E+13
 g05a2                 5     -1 -0.1000E+13  0.1000E+13
 g1a05                 6     -1 -0.1000E+13  0.1000E+13
 g1a1                  7     -1 -0.1000E+13  0.1000E+13
 g1a2                  8     -1 -0.1000E+13  0.1000E+13
 g2a05                 9     -1 -0.1000E+13  0.1000E+13
 g2a1                 10     -1 -0.1000E+13  0.1000E+13
 g2a2                 11     -1 -0.1000E+13  0.1000E+13
-------------------------------------------------------

-------------------------------------------------------------

       For each scalar, the number indicates it's rank
         in the list of all scalars. User scalars are placed
         first, from 1 to NSCAUS. Specific physics scalars
         are placed at the end, from
         NSCAUS+1 to NSCAPP+NSCAUS=NSCAL.

       ISCACP = 0 or 1     2   (use Cp or not               )
       VISLS0 = >0             (Reference viscosity         )
       SIGMAS = >0             (Schmidt                     )
       RVARFL = >0             (Rf, cf variance dissipation )
       ICLVFL = 0, 1 or 2      (Variance clipping mode      )
       SCAMIN =                (Min authorized value        )
       SCAMAX =                (Max authorized value        )
        For variances, SCAMIN is ignored and SCAMAX is used
          only if ICLVFL = 2

------------------------------------------------------
   Scalar        THETSS    IVSEXT      THETVS
------------------------------------------------------
          1  0.5000E+00         0  0.0000E+00
          2  0.5000E+00         0  0.0000E+00
          3  0.5000E+00         0  0.0000E+00
          4  0.5000E+00         0  0.0000E+00
          5  0.5000E+00         0  0.0000E+00
          6  0.5000E+00         0  0.0000E+00
          7  0.5000E+00         0  0.0000E+00
          8  0.5000E+00         0  0.0000E+00
          9  0.5000E+00         0  0.0000E+00
         10  0.5000E+00         0  0.0000E+00
         11  0.5000E+00         0  0.0000E+00
------------------------------------------------------

       THETSS =                (theta for source terms      )
                               ((1+theta).new-theta.old     )
       IVSEXT =                (extrap. total viscosity     )
                               (0: explicit                 )
                               (1: n+thetvs with thetvs=1/2 )
                               (2: n+thetvs with thetvs=1   )
       THETVS =                (theta for scalar diffusivity
                               ((1+theta).new-theta.old     )


 -----------------------------------------------------------


 ** CALCULATION MANAGEMENT
    ----------------------

 --- Restarted calculation
       ISUITE =              0 (1: restarted calculation    )
       ILEAUX =              1 (1: read  restart/auxiliary  )
       IECAUX =              1 (1: write checkpoint/auxiliary)


 --- Calculation time
     The numbering of time steps and the measure of simulated
       physical time are absolute values, and not values
       relative to the current calculation.

       INPDT0 =              0 (1: 0 time step calcuation   )
       NTMABS =         600000 (Final time step required    )

 --- CPU time margin
       TMARUS =   -0.10000E+01 (CPU time margin before stop )


 -----------------------------------------------------------


 ** INPUT-OUTPUT
    ------------

 --- Restart file
       NTSUIT =              0 (Checkpoint frequency )

 --- Probe history files
       NTHIST =              1 (Output frequency     )
       FRHIST =     -.10000E+01 (Output frequency (s) )
         --           --                --

 --- Log files
       NTLIST =            100 (Output frequency     )

       Number Name                IWARNI verbosity level
                                      (-999: not applicable)

 Velocity                       0
 Pressure                       0
 diric                          0
 neuma                          0
 g05a05                         0
 g05a1                          0
 g05a2                          0
 g1a05                          0
 g1a1                           0
 g1a2                           0
 g2a05                          0
 g2a1                           0
 g2a2                           0
 Laminar Viscosit            -999
 Turb Viscosity              -999
 CFL                         -999
 Fourier Number              -999
 Total Pressure              -999
 g05a05 Diff                 -999
 g05a1 Diff                  -999
 g05a2 Diff                  -999
 g1a05 Diff                  -999
 g1a1 Diff                   -999
 g1a2 Diff                   -999
 g2a05 Diff                  -999
 g2a1 Diff                   -999
 g2a2 Diff                   -999
 g05a05 Rho                  -999
 g05a1 Rho                   -999
 g05a2 Rho                   -999
 g1a05 Rho                   -999
 g1a1 Rho                    -999
 g1a2 Rho                    -999
 g2a05 Rho                   -999
 g2a1 Rho                    -999
 g2a2 Rho                    -999
 mu_t                        -999
 u_mean                      -999
 rij                         -999
 diric_mean                  -999
 diric_variance              -999
 diric_flux                  -999
 neuma_mean                  -999
 neuma_variance              -999
 neuma_flux                  -999
 g05a05_mean                 -999
 g05a05_variance             -999
 g05a05_flux                 -999
 g05a1_mean                  -999
 g05a1_variance              -999
 g05a1_flux                  -999
 g05a2_mean                  -999
 g05a2_variance              -999
 g05a2_flux                  -999
 g1a05_mean                  -999
 g1a05_variance              -999
 g1a05_flux                  -999
 g1a1_mean                   -999
 g1a1_variance               -999
 g1a1_flux                   -999
 g1a2_mean                   -999
 g1a2_variance               -999
 g1a2_flux                   -999
 g2a05_mean                  -999
 g2a05_variance              -999
 g2a05_flux                  -999
 g2a1_mean                   -999
 g2a1_variance               -999
 g2a1_flux                   -999
 g2a2_mean                   -999
 g2a2_variance               -999
 g2a2_flux                   -999
 u_grad                      -999
 u_diss                      -999
 mu_t_u_grad                 -999
 mu_t_u_diss                 -999
 diric_grad                  -999
 diric_diss                  -999
 diric_mu_t_t_gra            -999
 diric_mu_t_t_dis            -999
 neuma_grad                  -999
 neuma_diss                  -999
 neuma_mu_t_t_gra            -999
 neuma_mu_t_t_dis            -999
 g05a05_grad                 -999
 g05a05_diss                 -999
 g05a05_mu_t_t_gr            -999
 g05a05_mu_t_t_di            -999
 g05a1_grad                  -999
 g05a1_diss                  -999
 g05a1_mu_t_t_gra            -999
 g05a1_mu_t_t_dis            -999
 g05a2_grad                  -999
 g05a2_diss                  -999
 g05a2_mu_t_t_gra            -999
 g05a2_mu_t_t_dis            -999
 g1a05_grad                  -999
 g1a05_diss                  -999
 g1a05_mu_t_t_gra            -999
 g1a05_mu_t_t_dis            -999
 g1a1_grad                   -999
 g1a1_diss                   -999
 g1a1_mu_t_t_grad            -999
 g1a1_mu_t_t_diss            -999
 g1a2_grad                   -999
 g1a2_diss                   -999
 g1a2_mu_t_t_grad            -999
 g1a2_mu_t_t_diss            -999
 g2a05_grad                  -999
 g2a05_diss                  -999
 g2a05_mu_t_t_gra            -999
 g2a05_mu_t_t_dis            -999
 g2a1_grad                   -999
 g2a1_diss                   -999
 g2a1_mu_t_t_grad            -999
 g2a1_mu_t_t_diss            -999
 g2a2_grad                   -999
 g2a2_diss                   -999
 g2a2_mu_t_t_grad            -999
 g2a2_mu_t_t_diss            -999
         --           --                --

 --- Additional post-processing variables (ipstdv)
       ipstfo =              1 (Force exerted by the
                                     fluid on the boundary)
       ipstyp =              0 (y+ at boundary)
       ipsttp =              0 (T+ at boundary)
       ipstft =              0 (Thermal flux   at boundary)
       ipstnu =              0 (Dimensionless thermal
                                          flux at boundary)


 -----------------------------------------------------------


 ** ALE METHOD (MOVING MESH)
    -----------

       IALE   =              0 (1: activated                )
       NALINF =              0 (Fluid initialization
                                                  iterations)
       IFLXMW =              0 (ALE mass flux computation
                                0: thanks to vertices
                                1: thanks to mesh velocity)


 -----------------------------------------------------------


Postprocessing output writers:
------------------------------

  -1: name: results
      directory: postprocessing
      format: EnSight Gold
      options: 
      time dependency: fixed mesh
      output: every 100000 time steps and at calculation end

  -5: name: 
      directory: monitoring
      format: time_plot
      options: 
      time dependency: fixed mesh
      output: every 1 time steps

  -6: name: 
      directory: profiles
      format: plot
      options: 
      time dependency: fixed mesh
      output: at calculation end


 Reading file:        mesh_input
 Finished reading:    mesh_input
 No "partition_input/domain_number_56" file available;

 ----------------------------------------------------------

 Ignoring periodicity for graph-based partitioning.

 Partitioning 516096 cells to 56 domains on 56 ranks
   (SCOTCH_dgraphPart).

  wall-clock time: 2.441902 s

  Number of cells per domain (histogramm):
    [       8762 ;       8853 [ =          6
    [       8853 ;       8945 [ =          4
    [       8945 ;       9036 [ =          5
    [       9036 ;       9128 [ =          7
    [       9128 ;       9219 [ =         10
    [       9219 ;       9311 [ =          1
    [       9311 ;       9402 [ =          6
    [       9402 ;       9494 [ =          5
    [       9494 ;       9585 [ =          6
    [       9585 ;       9677 ] =          6

 Writing file:        partition_output/domain_number_56
 Finished writing:    partition_output/domain_number_56

 Partitioning finished (3.72 s)

 Before insertion of user-defined boundary
   Number of cells:          516096
   Number of interior faces: 1560320
   Number of boundary faces: 8192
   Number of vertices:       536575

 After insertion of user-defined boundary
   Number of cells:          516096
   Number of interior faces: 1536000
   Number of boundary faces: 24576
   Number of vertices:       545025


 ----------------------------------------------------------
 Composing periodicities

 Halo construction with standard neighborhood
 ============================================

 Face interfaces creation
 Definition of periodic vertices
 Vertex interfaces creation
 Halo creation
 Halo definition
    Local halo definition
    Distant halo creation
    Updating the faces -> cells connectivity

 Histogram of the number of cells per rank:

    minimum value =               8762
    maximum value =               9677

      1 : [       8762 ;       8945 [ =         10
      2 : [       8945 ;       9128 [ =         12
      3 : [       9128 ;       9311 [ =         11
      4 : [       9311 ;       9494 [ =         11
      5 : [       9494 ;       9677 ] =         12

 ----------------------------------------------------------

 Histogram of the number of standard + halo cells per rank:

    minimum value =              10986
    maximum value =              14171

      1 : [      10986 ;      11623 [ =         14
      2 : [      11623 ;      12260 [ =         29
      3 : [      12260 ;      12897 [ =          7
      4 : [      12897 ;      13534 [ =          5
      5 : [      13534 ;      14171 ] =          1

 ----------------------------------------------------------

 Histogram of the number of ghost cells per rank:

    minimum value =               2142
    maximum value =               4581

      1 : [       2142 ;       2629 [ =         29
      2 : [       2629 ;       3117 [ =         15
      3 : [       3117 ;       3605 [ =          5
      4 : [       3605 ;       4093 [ =          5
      5 : [       4093 ;       4581 ] =          2

 ----------------------------------------------------------

 Histogram of the number of interior faces per rank:

    minimum value =              27205
    maximum value =              30868

      1 : [      27205 ;      27937 [ =          7
      2 : [      27937 ;      28670 [ =         18
      3 : [      28670 ;      29402 [ =         18
      4 : [      29402 ;      30135 [ =          8
      5 : [      30135 ;      30868 ] =          5

 ----------------------------------------------------------

 Histogram of the number of boundary faces per rank:

    minimum value =                  0
    maximum value =               1024

      1 : [          0 ;        204 [ =          4
      2 : [        204 ;        409 [ =         18
      3 : [        409 ;        614 [ =         30
      4 : [        614 ;        819 [ =          2
      5 : [        819 ;       1024 ] =          2

 ----------------------------------------------------------

 Histogram of the number of interior faces per cell:

    minimum value =                  5
    maximum value =                  6

      1 : [          5 ;          6 ] =     516096

 ----------------------------------------------------------

 Histogram of the number of neighboring domains per rank:

    minimum value =                  8
    maximum value =                 21

      1 : [          8 ;         10 [ =         11
      2 : [         10 ;         13 [ =         20
      3 : [         13 ;         15 [ =         11
      4 : [         15 ;         18 [ =          9
      5 : [         18 ;         21 ] =          5

 ----------------------------------------------------------

 Global definition of the number of elements (cells, vertices, faces...)
Synchronizing cell families

 Writing file:        mesh_output
 Finished writing:    mesh_output

 Renumbering mesh:

   renumbering for cells:
     pre-numbering:                       none
     cells adjacent to ghost cells last:  no
     numbering:                           none

   renumbering for interior faces:
     cell adjacency pre-ordering:         lowest id first
     faces adjacent to ghost cells last:  no
     numbering:                           none

   renumbering for boundary faces:
     numbering:                           none

 ----------------------------------------------------------

 Histogram of volume mesh matrix bandwidth per rank:

    minimum value =               9502
    maximum value =              12723

      1 : [       9502 ;      10146 [ =          2
      2 : [      10146 ;      10790 [ =         13
      3 : [      10790 ;      11434 [ =         15
      4 : [      11434 ;      12078 [ =         20
      5 : [      12078 ;      12723 ] =          6

 Histogram of volume mesh matrix profile/lines per rank:

    minimum value =               1544
    maximum value =               3652

      1 : [       1544 ;       1965 [ =         33
      2 : [       1965 ;       2387 [ =         10
      3 : [       2387 ;       2808 [ =          9
      4 : [       2808 ;       3230 [ =          3
      5 : [       3230 ;       3652 ] =          1

 Mesh coordinates:               minimum    and maximum
                       X : -1.7763568e-15  1.2566000e+01
                       Y : -2.0000000e+00  2.0000000e+00
                       Z : -8.8817842e-16  6.2840000e+00
 Mesh
     Number of cells:          516096
     Number of interior faces: 1552128
     Number of boundary faces: 24576
     Number of vertices:       545025

 Periodic faces (which are also interior faces):
     Periodicity  1:          8064 face couples
     Periodicity  2:          8064 face couples

 Groups:
    "0"
       cells:                516096
       interior faces:      1552128
       boundary faces:        24576
    "auto:internal_coupling_0"
       boundary faces:        16384

 --- Information on the volumes
       Minimum control volume      =  1.1752534e-04
       Maximum control volume      =  1.7598010e-03
       Total volume for the domain =  3.1585898e+02

  Criterion 1: Orthogonality:
    Number of bad cells detected: 0 -->   0 %

  Criterion 2: Offset:
    Number of bad cells detected: 0 -->   0 %

  Criterion 3: Least-Squares Gradient Quality:
    Number of bad cells detected: 0 -->   0 %

  Criterion 4: Cells Volume Ratio:
    Number of bad cells detected: 0 -->   0 %

  Criterion 5: Guilt by Association:
    Number of bad cells detected: 0 -->   0 %

 Computing geometric quantities (0.0191 s)

 Internal coupling
   coupling_id = 0
   Coupled scalar: g05a05
   Cell group selection criterion: -1.<y<1.
   Face group selection criterion: auto:internal_coupling_0
   Locator: n dist points (total coupled boundary faces) = 16384
   coupling_id = 1
   Coupled scalar: g05a1
   Cell group selection criterion: -1.<y<1.
   Face group selection criterion: auto:internal_coupling_0
   Locator: n dist points (total coupled boundary faces) = 16384
   coupling_id = 2
   Coupled scalar: g05a2
   Cell group selection criterion: -1.<y<1.
   Face group selection criterion: auto:internal_coupling_0
   Locator: n dist points (total coupled boundary faces) = 16384
   coupling_id = 3
   Coupled scalar: g1a05
   Cell group selection criterion: -1.<y<1.
   Face group selection criterion: auto:internal_coupling_0
   Locator: n dist points (total coupled boundary faces) = 16384
   coupling_id = 4
   Coupled scalar: g1a1
   Cell group selection criterion: -1.<y<1.
   Face group selection criterion: auto:internal_coupling_0
   Locator: n dist points (total coupled boundary faces) = 16384
   coupling_id = 5
   Coupled scalar: g1a2
   Cell group selection criterion: -1.<y<1.
   Face group selection criterion: auto:internal_coupling_0
   Locator: n dist points (total coupled boundary faces) = 16384
   coupling_id = 6
   Coupled scalar: g2a05
   Cell group selection criterion: -1.<y<1.
   Face group selection criterion: auto:internal_coupling_0
   Locator: n dist points (total coupled boundary faces) = 16384
   coupling_id = 7
   Coupled scalar: g2a1
   Cell group selection criterion: -1.<y<1.
   Face group selection criterion: auto:internal_coupling_0
   Locator: n dist points (total coupled boundary faces) = 16384
   coupling_id = 8
   Coupled scalar: g2a2
   Cell group selection criterion: -1.<y<1.
   Face group selection criterion: auto:internal_coupling_0
   Locator: n dist points (total coupled boundary faces) = 16384
                                                             
       ALMAX  =    0.68103E+01 (Characteristic length       )
       ALMAX is the cubic root of the domain volume.


 -----------------------------------------------------------


 ** VARIABLES INITIALIZATION
    ------------------------

 -----------------------------------------
  Variable          Min. value  Max. value
 -----------------------------------------                   
  Velocity          0.0000E+00  0.1597E+01
  Velocity          0.0000E+00  0.9978E-01
  Velocity          0.0000E+00  0.9977E-01
  Pressure          0.0000E+00  0.0000E+00
  diric             0.0000E+00  0.1597E+01
  neuma             0.0000E+00  0.1597E+01
  g05a05           -0.1052E+01  0.1597E+01
  g05a1            -0.1051E+01  0.1597E+01
  g05a2            -0.1051E+01  0.1597E+01
  g1a05            -0.1051E+01  0.1597E+01
  g1a1             -0.1052E+01  0.1597E+01
  g1a2             -0.1051E+01  0.1597E+01
  g2a05            -0.1051E+01  0.1597E+01
  g2a1             -0.1052E+01  0.1597E+01
  g2a2             -0.1051E+01  0.1597E+01
 ---------------------------------

                dt  0.2500E-01  0.2500E-01
 ---------------------------------



-------------------------------------------------------------

 ------------------------------------------------------------- 



===============================================================



                       MAIN CALCULATION                      
                       ================                      


===============================================================




===============================================================


 INSTANT    0.250000000E-01   TIME STEP NUMBER               1
 ============================================================= 


 -----------------------------------------
 Property           Min. value  Max. value
 -----------------------------------------
  density           0.1000E+01  0.1000E+01
  molecular_viscos  0.4298E-03  0.4298E-03
  turbulent_viscos  0.0000E+00  0.2426E-02
 -----------------------------------------

 --- Diffusivity:
 -----------------------------------------------
 Scalar           Number  Min. value  Max. value
 -----------------------------------------------
 diric                 1  0.6054E-03  0.6054E-03
 neuma                 2  0.6054E-03  0.6054E-03
 g05a05                3  0.6054E-03  0.1211E-02
 g05a1                 4  0.6054E-03  0.6054E-03
 g05a2                 5  0.3027E-03  0.6054E-03
 g1a05                 6  0.6054E-03  0.1211E-02
 g1a1                  7  0.6054E-03  0.6054E-03
 g1a2                  8  0.3027E-03  0.6054E-03
 g2a05                 9  0.6054E-03  0.1211E-02
 g2a1                 10  0.6054E-03  0.6054E-03
 g2a2                 11  0.3027E-03  0.6054E-03
 -----------------------------------------------



   ** INFORMATION ON BOUNDARY FACES TYPE
      ----------------------------------

-------------------------------------------------------------------------
Boundary type          Code    Nb faces
-------------------------------------------------------------------------
Inlet                     2           0
Smooth wall               5       24576
Rough wall                6           0
Symmetry                  4           0
Free outlet               3           0
Free inlet               14           0
Convective inlet         16           0
Free surface             15           0
Undefined                 1           0
-------------------------------------------------------------------------



   ** BOUNDARY MASS FLOW INFORMATION
      ------------------------------

---------------------------------------------------------------
Boundary type          Code    Nb faces           Mass flow
---------------------------------------------------------------
Inlet                     2           0         0.000000000E+00
Smooth wall               5       24576         0.000000000E+00
Rough wall                6           0         0.000000000E+00
Symmetry                  4           0         0.000000000E+00
Free outlet               3           0         0.000000000E+00
Free inlet               14           0         0.000000000E+00
Convective inlet         16           0         0.000000000E+00
Free surface             15           0         0.000000000E+00
Undefined                 1           0         0.000000000E+00
---------------------------------------------------------------

 cedric output : friction bot wall =   0.10501130973633907        3.4188864962310132E-003   3.3827930397450643E-003
 cedric output : friction top wall =   0.10502833681086804        3.4238219981501837E-003   3.3805202124941470E-003

 INSTANT    0.500000000E-01   TIME STEP NUMBER               2
 ============================================================= 




   ** BOUNDARY MASS FLOW INFORMATION
      ------------------------------

---------------------------------------------------------------
Boundary type          Code    Nb faces           Mass flow
---------------------------------------------------------------
Inlet                     2           0         0.000000000E+00
Smooth wall               5       24576         0.000000000E+00
Rough wall                6           0         0.000000000E+00
Symmetry                  4           0         0.000000000E+00
Free outlet               3           0         0.000000000E+00
Free inlet               14           0         0.000000000E+00
Convective inlet         16           0         0.000000000E+00
Free surface             15           0         0.000000000E+00
Undefined                 1           0         0.000000000E+00
---------------------------------------------------------------

 cedric output : friction bot wall =   0.10621755775746367        6.0540404178031698E-004   3.3842716100756691E-003
 cedric output : friction top wall =   0.10622920444289974        6.0372284634256320E-004   3.3900098022471591E-003

 INSTANT    0.750000000E-01   TIME STEP NUMBER               3
 ============================================================= 


 cedric output : friction bot wall =   0.10651163326690791        41.076107769106152        3.3760151215602705E-003
 cedric output : friction top wall =   0.10651805068970581        41.164226584810748        3.3854687771423413E-003

 INSTANT    0.100000000E+00   TIME STEP NUMBER               4
 ============================================================= 


 cedric output : friction bot wall =   0.10674820674258527        40.814993964312762        3.3671230362207140E-003
 cedric output : friction top wall =   0.10675031621386527        40.919447288481557        3.3784651045753638E-003

 INSTANT    0.125000000E+00   TIME STEP NUMBER               5
 ============================================================= 


 cedric output : friction bot wall =   0.10695431878952422        40.805475098768021        3.3595842639273562E-003
 cedric output : friction top wall =   0.10695360368763179        40.908566074779849        3.3719154456180278E-003

 INSTANT    0.150000000E+00   TIME STEP NUMBER               6
 ============================================================= 


 cedric output : friction bot wall =   0.10713925447726065        40.808640903537054        3.3537002680042007E-003
 cedric output : friction top wall =   0.10713703769886804        40.910776041840521        3.3664800936801073E-003

 INSTANT    0.175000000E+00   TIME STEP NUMBER               7
 ============================================================= 


 cedric output : friction bot wall =   0.10730837930609385        40.811803657405065        3.3492460461911344E-003
 cedric output : friction top wall =   0.10730556957451176        40.913333534321197        3.3620991593168144E-003

 INSTANT    0.200000000E+00   TIME STEP NUMBER               8
 ============================================================= 


 cedric output : friction bot wall =   0.10746512584951506        40.814845379062710        3.3458874293508956E-003
 cedric output : friction top wall =   0.10746229846246463        40.915916918750810        3.3585445780026056E-003

 INSTANT    0.225000000E+00   TIME STEP NUMBER               9
 ============================================================= 


 cedric output : friction bot wall =   0.10761186566779601        40.817832569432156        3.3433209268300588E-003
 cedric output : friction top wall =   0.10760935183257170        40.918531595696336        3.3555956303262307E-003

 INSTANT    0.250000000E+00   TIME STEP NUMBER              10
 ============================================================= 


 cedric output : friction bot wall =   0.10775032000347662        40.820784502965132        3.3413081623548842E-003
 cedric output : friction top wall =   0.10774828397037323        40.921164757621590        3.3530813973497303E-003
 cedric output : bulk fluid temperature =   0.24999999999999997        1.0329636695935855       -1.9731936943478367E-010  -7.6320053227275766E-008   6.4246709926775318E-006   3.9172089444117103E-006  -6.6136934858546773E-006  -1.1160309157569343E-007   2.6308866047829149E-006  -1.0376440185036654E-005  -4.6913570579254437E-006  -8.1413932527625632E-008

 INSTANT    0.275000000E+00   TIME STEP NUMBER              11
 ============================================================= 


 cedric output : friction bot wall =   0.10788177930883729        40.823710347234105        3.3396739403177178E-003
 cedric output : friction top wall =   0.10788027764356145        40.923814813291031        3.3508803343088086E-003

 INSTANT    0.300000000E+00   TIME STEP NUMBER              12
 ============================================================= 


 cedric output : friction bot wall =   0.10800723446141122        40.826610579234924        3.3382941782184989E-003
 cedric output : friction top wall =   0.10800625877387129        40.926477846254585        3.3489092067010943E-003

 INSTANT    0.325000000E+00   TIME STEP NUMBER              13
 ============================================================= 


 cedric output : friction bot wall =   0.10812746161115630        40.829487949256169        3.3370830742356209E-003
 cedric output : friction top wall =   0.10812696800630103        40.929153731401236        3.3471118297901089E-003

 INSTANT    0.350000000E+00   TIME STEP NUMBER              14
 ============================================================= 


 cedric output : friction bot wall =   0.10824307971814741        40.832346920809634        3.3359823606224472E-003
 cedric output : friction top wall =   0.10824300832158151        40.931842506363971        3.3454502646764884E-003

 INSTANT    0.375000000E+00   TIME STEP NUMBER              15
 ============================================================= 


 cedric output : friction bot wall =   0.10835459068952924        40.835190922746200        3.3349531010298666E-003
 cedric output : friction top wall =   0.10835487806642954        40.934541883963618        3.3438985877595018E-003

 INSTANT    0.400000000E+00   TIME STEP NUMBER              16
 ============================================================= 


 cedric output : friction bot wall =   0.10846240789338613        40.838019606188972        3.3339697119393404E-003
 cedric output : friction top wall =   0.10846299454162223        40.937251783515180        3.3424386913402547E-003

 INSTANT    0.425000000E+00   TIME STEP NUMBER              17
 ============================================================= 


 cedric output : friction bot wall =   0.10856687669971977        40.840834497494413        3.3330157178795795E-003
 cedric output : friction top wall =   0.10856771122369255        40.939970642643104        3.3410575279693793E-003

 INSTANT    0.450000000E+00   TIME STEP NUMBER              18
 ============================================================= 


 cedric output : friction bot wall =   0.10866828946808940        40.843636642670141        3.3320807863538933E-003
 cedric output : friction top wall =   0.10866933057725428        40.942698161940939        3.3397453313105735E-003

 INSTANT    0.475000000E+00   TIME STEP NUMBER              19
 ============================================================= 


 cedric output : friction bot wall =   0.10876689662194515        40.846427359296776        3.3311586799707228E-003
 cedric output : friction top wall =   0.10876811375011827        40.945434007958127        3.3384944795895070E-003

 INSTANT    0.500000000E+00   TIME STEP NUMBER              20
 ============================================================= 


 cedric output : friction bot wall =   0.10886291493713689        40.849208112786172        3.3302458539965301E-003
 cedric output : friction top wall =   0.10886428802712231        40.948177214961376        3.3372987748806989E-003
 cedric output : bulk fluid temperature =   0.50000000000000011        1.0326538499689477       -1.7069140319095226E-010  -5.2357606249343913E-008   6.4438462817232049E-006   3.9092807728679014E-006  -6.5660766177399535E-006  -7.7571585823482379E-008   2.6362574654994274E-006  -1.0265383624184735E-005  -4.6466455757228947E-006  -5.6952944004425591E-008

 INSTANT    0.525000000E+00   TIME STEP NUMBER              21
 ============================================================= 


 cedric output : friction bot wall =   0.10895653382599324        40.851978614929472        3.3293405030600364E-003
 cedric output : friction top wall =   0.10895805264318023        40.950925903433628        3.3361529888266909E-003

 INSTANT    0.550000000E+00   TIME STEP NUMBER              22
 ============================================================= 


 cedric output : friction bot wall =   0.10904792016546434        40.854739295094014        3.3284419179044839E-003
 cedric output : friction top wall =   0.10904958337901233        40.953681065235003        3.3350525777033750E-003

 INSTANT    0.575000000E+00   TIME STEP NUMBER              23
 ============================================================= 


 cedric output : friction bot wall =   0.10913722205484291        40.857490327155197        3.3275500547766618E-003
 cedric output : friction top wall =   0.10913903623846788        40.956442432725353        3.3339935041149884E-003

 INSTANT    0.600000000E+00   TIME STEP NUMBER              24
 ============================================================= 


 cedric output : friction bot wall =   0.10922457177738829        40.860233610840091        3.3266652498448587E-003
 cedric output : friction top wall =   0.10922655042276060        40.959208001815647        3.3329721253983467E-003

 INSTANT    0.625000000E+00   TIME STEP NUMBER              25
 ============================================================= 


 cedric output : friction bot wall =   0.10931008816397150        40.862972787035183        3.3257880323164469E-003
 cedric output : friction top wall =   0.10931225075934639        40.961978517539762        3.3319851233854056E-003

 INSTANT    0.650000000E+00   TIME STEP NUMBER              26
 ============================================================= 


 cedric output : friction bot wall =   0.10939387850170609        40.865707676886366        3.3249190042453731E-003
 cedric output : friction top wall =   0.10939624970304752        40.964749450479388        3.3310294592479805E-003

 INSTANT    0.675000000E+00   TIME STEP NUMBER              27
 ============================================================= 


 cedric output : friction bot wall =   0.10947604009192405        40.868440544626537        3.3240587651629204E-003
 cedric output : friction top wall =   0.10947864900005254        40.967521294933050        3.3301023438300362E-003

 INSTANT    0.700000000E+00   TIME STEP NUMBER              28
 ============================================================= 


 cedric output : friction bot wall =   0.10955666153427894        40.871170302583359        3.3232078667321018E-003
 cedric output : friction top wall =   0.10955954107700985        40.970292391878793        3.3292012167177362E-003

 INSTANT    0.725000000E+00   TIME STEP NUMBER              29
 ============================================================= 


 cedric output : friction bot wall =   0.10963582379919917        40.873896608848170        3.3223667873704330E-003
 cedric output : friction top wall =   0.10963901021091148        40.973062503071972        3.3283237305991682E-003

 INSTANT    0.750000000E+00   TIME STEP NUMBER              30
 ============================================================= 


 cedric output : friction bot wall =   0.10971360112707446        40.876619863376838        3.3215359199557735E-003
 cedric output : friction top wall =   0.10971713352021653        40.975835268057551        3.3274677385973202E-003
 cedric output : bulk fluid temperature =   0.75000000000000033        1.0323463305860427       -1.3098848365600191E-010  -4.1809058315673740E-008   6.4349353607704598E-006   3.8730965402535999E-006  -6.6448569914068554E-006  -6.2610851790653554E-008   2.6249380659554298E-006  -1.0192810695650605E-005  -4.8612816101799017E-006  -4.6115484185864918E-008

 INSTANT    0.775000000E+00   TIME STEP NUMBER              31
 ============================================================= 


 cedric output : friction bot wall =   0.10979006179116253        40.879341246227014        3.3207155680278579E-003
 cedric output : friction top wall =   0.10979398180684222        40.978610167969592        3.3266312828145934E-003

 INSTANT    0.800000000E+00   TIME STEP NUMBER              32
 ============================================================= 


 cedric output : friction bot wall =   0.10986526874885746        40.882060702359809        3.3199059473421151E-003
 cedric output : friction top wall =   0.10986962027691727        40.981383723466578        3.3258125836168728E-003

 INSTANT    0.825000000E+00   TIME STEP NUMBER              33
 ============================================================= 


 cedric output : friction bot wall =   0.10993928020138830        40.884778976591285        3.3191071906175209E-003
 cedric output : friction top wall =   0.10994410916138708        40.984156119382078        3.3250100294421416E-003

 INSTANT    0.850000000E+00   TIME STEP NUMBER              34
 ============================================================= 


 cedric output : friction bot wall =   0.11001215007737281        40.887496232679688        3.3183193541059209E-003
 cedric output : friction top wall =   0.11001750425071674        40.986928028349823        3.3242221666689299E-003

 INSTANT    0.875000000E+00   TIME STEP NUMBER              35
 ============================================================= 


 cedric output : friction bot wall =   0.11008392845433006        40.890212798640661        3.3175424251394347E-003
 cedric output : friction top wall =   0.11008985735965890        40.989699892859875        3.3234476895199695E-003

 INSTANT    0.900000000E+00   TIME STEP NUMBER              36
 ============================================================= 


 cedric output : friction bot wall =   0.11015466192740991        40.892927561738873        3.3167763299886601E-003
 cedric output : friction top wall =   0.11016121673228477        40.992471282121443        3.3226854300629403E-003

 INSTANT    0.925000000E+00   TIME STEP NUMBER              37
 ============================================================= 


 cedric output : friction bot wall =   0.11022439393364171        40.895639462386946        3.3160209417351532E-003
 cedric output : friction top wall =   0.11023162739572979        40.995242924742932        3.3219343484845246E-003

 INSTANT    0.950000000E+00   TIME STEP NUMBER              38
 ============================================================= 


 cedric output : friction bot wall =   0.11029316503819858        40.898347832386740        3.3152760878233053E-003
 cedric output : friction top wall =   0.11030113147091786        40.998015623331057        3.3211935233231691E-003

 INSTANT    0.975000000E+00   TIME STEP NUMBER              39
 ============================================================= 


 cedric output : friction bot wall =   0.11036101318800892        40.901052844509508        3.3145415570942100E-003
 cedric output : friction top wall =   0.11036976844714216        41.000790872849763        3.3204621419653888E-003

 INSTANT    0.100000000E+01   TIME STEP NUMBER              40
 ============================================================= 


 cedric output : friction bot wall =   0.11042797393744330        40.903753390842063        3.3138171062795235E-003
 cedric output : friction top wall =   0.11043757542496264        41.003570603512387        3.3197394912509543E-003
 cedric output : bulk fluid temperature =    1.0000000000000004        1.0320406387417960       -1.1596691497429567E-010  -3.5518301023443166E-008   6.4197273787946725E-006   3.8327976147197163E-006  -6.5997610486165181E-006  -5.3724523848663416E-008   2.6103632593227122E-006  -1.0136421827249027E-005  -4.8024877966448118E-006  -3.9656064431180324E-008

 INSTANT    0.102500000E+01   TIME STEP NUMBER              41
 ============================================================= 


 cedric output : friction bot wall =   0.11049408065000399        40.906449488360963        3.3131024659210744E-003
 cedric output : friction top wall =   0.11050458733124838        41.006354175495353        3.3190249486254797E-003

 INSTANT    0.105000000E+01   TIME STEP NUMBER              42
 ============================================================= 


 cedric output : friction bot wall =   0.11055936467912589        40.909140891880028        3.3123973456725365E-003
 cedric output : friction top wall =   0.11057083711124303        41.009139508577007        3.3183179735894238E-003

 INSTANT    0.107500000E+01   TIME STEP NUMBER              43
 ============================================================= 


 cedric output : friction bot wall =   0.11062385553047591        40.911827192027246        3.3117014391344430E-003
 cedric output : friction top wall =   0.11063635590140200        41.011926493613814        3.3176180997319432E-003

 INSTANT    0.110000000E+01   TIME STEP NUMBER              44
 ============================================================= 


 cedric output : friction bot wall =   0.11068758100810604        40.914506022358047        3.3110144281473051E-003
 cedric output : friction top wall =   0.11070117318495716        41.014719626285462        3.3169249272799271E-003

 INSTANT    0.112500000E+01   TIME STEP NUMBER              45
 ============================================================= 


 cedric output : friction bot wall =   0.11075056734631877        40.917175926032193        3.3103359864884345E-003
 cedric output : friction top wall =   0.11076531693107394        41.017518306898040        3.3162381161758029E-003

 INSTANT    0.115000000E+01   TIME STEP NUMBER              46
 ============================================================= 


 cedric output : friction bot wall =   0.11081283932933099        40.919836509835939        3.3096657831811482E-003
 cedric output : friction top wall =   0.11082881371906368        41.020324301754634        3.3155573793775730E-003

 INSTANT    0.117500000E+01   TIME STEP NUMBER              47
 ============================================================= 


 cedric output : friction bot wall =   0.11087442039911199        40.922487198055990        3.3090034853904306E-003
 cedric output : friction top wall =   0.11089168885108548        41.023138382137930        3.3148824767143077E-003

 INSTANT    0.120000000E+01   TIME STEP NUMBER              48
 ============================================================= 


 cedric output : friction bot wall =   0.11093533275358626        40.925128227153913        3.3083487609390652E-003
 cedric output : friction top wall =   0.11095396645371422        41.025960459283780        3.3142132095348165E-003

 INSTANT    0.122500000E+01   TIME STEP NUMBER              49
 ============================================================= 


 cedric output : friction bot wall =   0.11099559743585953        40.927759933950597        3.3077012804093565E-003
 cedric output : friction top wall =   0.11101566956961334        41.028791872917900        3.3135494155624324E-003

 INSTANT    0.125000000E+01   TIME STEP NUMBER              50
 ============================================================= 


 cedric output : friction bot wall =   0.11105523441561220        40.930380572734222        3.3070607189811464E-003
 cedric output : friction top wall =   0.11107682024030592        41.031633839355038        3.3128909642200230E-003
 cedric output : bulk fluid temperature =    1.2499999999999996        1.0317364962909925       -7.7143960231937181E-011  -3.1238093288894700E-008   6.4028702925537143E-006   3.7929592501011439E-006  -6.5616187935304314E-006  -4.7655050192500872E-008   2.5952424846141397E-006  -1.0088845094569813E-005  -4.7544405755307772E-006  -3.5237128885254244E-008

 INSTANT    0.127500000E+01   TIME STEP NUMBER              51
 ============================================================= 


 cedric output : friction bot wall =   0.11111426266336673        40.932988006956961        3.3064267580485279E-003
 cedric output : friction top wall =   0.11113743958154215        41.034485654919990        3.3122377521696408E-003

 INSTANT    0.130000000E+01   TIME STEP NUMBER              52
 ============================================================= 


 cedric output : friction bot wall =   0.11117270021844049        40.935582047171224        3.3057990865770640E-003
 cedric output : friction top wall =   0.11119754785223711        41.037348946338355        3.3115896992494624E-003

 INSTANT    0.132500000E+01   TIME STEP NUMBER              53
 ============================================================= 


 cedric output : friction bot wall =   0.11123056425111205        40.938163545838712        3.3051774022206334E-003
 cedric output : friction top wall =   0.11125716451797146        41.040224585845387        3.3109467451763065E-003

 INSTANT    0.135000000E+01   TIME STEP NUMBER              54
 ============================================================= 


 cedric output : friction bot wall =   0.11128787111964941        40.940732585136288        3.3045614121991760E-003
 cedric output : friction top wall =   0.11131630830937704        41.043111683139756        3.3103088462386925E-003

 INSTANT    0.137500000E+01   TIME STEP NUMBER              55
 ============================================================= 


 cedric output : friction bot wall =   0.11134463642286122        40.943289410442638        3.3039508340226035E-003
 cedric output : friction top wall =   0.11137499727687983        41.046009671733778        3.3096759719570537E-003

 INSTANT    0.140000000E+01   TIME STEP NUMBER              56
 ============================================================= 


 cedric output : friction bot wall =   0.11140087504835998        40.945834960039768        3.3033453960225022E-003
 cedric output : friction top wall =   0.11143324884309454        41.048917509223550        3.3090481018836502E-003

 INSTANT    0.142500000E+01   TIME STEP NUMBER              57
 ============================================================= 


 cedric output : friction bot wall =   0.11145660121691099        40.948370097758691        3.3027448377123967E-003
 cedric output : friction top wall =   0.11149107985349825        41.051835688682687        3.3084252225897299E-003

 INSTANT    0.145000000E+01   TIME STEP NUMBER              58
 ============================================================= 


 cedric output : friction bot wall =   0.11151182852334142        40.950902819727780        3.3021489099622067E-003
 cedric output : friction top wall =   0.11154850662468482        41.054764937283402        3.3078073247730304E-003

 INSTANT    0.147500000E+01   TIME STEP NUMBER              59
 ============================================================= 


 cedric output : friction bot wall =   0.11156657001818429        40.953403329469729        3.3015573770939022E-003
 cedric output : friction top wall =   0.11160554494944673        41.057693321637771        3.3071944012875330E-003

 INSTANT    0.150000000E+01   TIME STEP NUMBER              60
 ============================================================= 


 cedric output : friction bot wall =   0.11162083813417197        40.955925540119338        3.3009700108715756E-003
 cedric output : friction top wall =   0.11166221018752287        41.060646549675035        3.3065864379096372E-003
 cedric output : bulk fluid temperature =    1.4999999999999987        1.0314337103953231       -3.5357551017421512E-011  -3.2655644747032579E-008   6.3858751005376017E-006   3.7548925255860576E-006  -6.5290145397530843E-006  -4.3189463549495852E-008   2.5804124483069268E-006  -1.0047410976233516E-005  -4.7148551475233795E-006  -3.1972995191720686E-008

 INSTANT    0.152500000E+01   TIME STEP NUMBER              61
 ============================================================= 


 cedric output : friction bot wall =   0.11167464476100653        40.958416368461300        3.3003865965680491E-003
 cedric output : friction top wall =   0.11171851745077202        41.063589908542681        3.3059834307422988E-003

 INSTANT    0.155000000E+01   TIME STEP NUMBER              62
 ============================================================= 


 cedric output : friction bot wall =   0.11172800140617856        40.960906841068081        3.2998069316532786E-003
 cedric output : friction top wall =   0.11177448122286110        41.066546736348023        3.3053853549164470E-003

 INSTANT    0.157500000E+01   TIME STEP NUMBER              63
 ============================================================= 


 cedric output : friction bot wall =   0.11178091900090051        40.963389909133838        3.2992308220519970E-003
 cedric output : friction top wall =   0.11183011584475405        41.069507071596412        3.3047921880429805E-003

 INSTANT    0.160000000E+01   TIME STEP NUMBER              64
 ============================================================= 


 cedric output : friction bot wall =   0.11183340807973104        40.965868637849312        3.2986580853317394E-003
 cedric output : friction top wall =   0.11188543530299803        41.072468580576846        3.3042038990697999E-003

 INSTANT    0.162500000E+01   TIME STEP NUMBER              65
 ============================================================= 


 cedric output : friction bot wall =   0.11188547876823733        40.968342755505411        3.2980885495000507E-003
 cedric output : friction top wall =   0.11194045328797192        41.075432153237166        3.3036204508379418E-003

 INSTANT    0.165000000E+01   TIME STEP NUMBER              66
 ============================================================= 


 cedric output : friction bot wall =   0.11193714080152560        40.970815735250959        3.2975220524421910E-003
 cedric output : friction top wall =   0.11199518322582466        41.078395760655724        3.3030418019690884E-003

 INSTANT    0.167500000E+01   TIME STEP NUMBER              67
 ============================================================= 


 cedric output : friction bot wall =   0.11198840354325806        40.973287462055225        3.2969584414959284E-003
 cedric output : friction top wall =   0.11204963830250879        41.081360783906987        3.3024679092716462E-003

 INSTANT    0.170000000E+01   TIME STEP NUMBER              68
 ============================================================= 


 cedric output : friction bot wall =   0.11203927600529304        40.975760149635931        3.2963975730594028E-003
 cedric output : friction top wall =   0.11210383148387557        41.084326247561691        3.3018987314313783E-003

 INSTANT    0.172500000E+01   TIME STEP NUMBER              69
 ============================================================= 


 cedric output : friction bot wall =   0.11208976686589672        40.978231484042254        3.2958393121802643E-003
 cedric output : friction top wall =   0.11215777553158747        41.087289951346179        3.3013342330998371E-003

 INSTANT    0.175000000E+01   TIME STEP NUMBER              70
 ============================================================= 


 cedric output : friction bot wall =   0.11213988448600085        40.980703290373818        3.2952835320708800E-003
 cedric output : friction top wall =   0.11221148302076536        41.090252987486409        3.3007743892815846E-003
 cedric output : bulk fluid temperature =    1.7499999999999978        1.0311321323918927        3.0626559942859417E-011  -2.5640694162631086E-008   6.3694244908365569E-006   3.7191063623889250E-006  -6.5004412756166497E-006  -3.9712772700982325E-008   2.5662779536418374E-006  -1.0010381728223660E-005  -4.6811414513176480E-006  -2.9428535408070261E-008

 INSTANT    0.177500000E+01   TIME STEP NUMBER              71
 ============================================================= 


 cedric output : friction bot wall =   0.11218963692470846        40.983173799539614        3.2947301136568383E-003
 cedric output : friction top wall =   0.11226496635901839        41.093213539242242        3.3002191893777098E-003

 INSTANT    0.180000000E+01   TIME STEP NUMBER              72
 ============================================================= 


 cedric output : friction bot wall =   0.11223903195575349        40.985646045040575        3.2941789452003698E-003
 cedric output : friction top wall =   0.11231823780627642        41.096169727764028        3.2996686406112424E-003

 INSTANT    0.182500000E+01   TIME STEP NUMBER              73
 ============================================================= 


 cedric output : friction bot wall =   0.11228807708022931        40.988120476269586        3.2936299218956238E-003
 cedric output : friction top wall =   0.11237130949923513        41.099123880464973        3.2991227720687430E-003

 INSTANT    0.185000000E+01   TIME STEP NUMBER              74
 ============================================================= 


 cedric output : friction bot wall =   0.11233677954000208        40.990597383459793        3.2930829453976635E-003
 cedric output : friction top wall =   0.11242419347194603        41.102076579577279        3.2985816386002123E-003

 INSTANT    0.187500000E+01   TIME STEP NUMBER              75
 ============================================================= 


 cedric output : friction bot wall =   0.11238514632994417        40.993076102386652        3.2925379233693696E-003
 cedric output : friction top wall =   0.11247690167677066        41.105027272743506        3.2980453251219431E-003

 INSTANT    0.190000000E+01   TIME STEP NUMBER              76
 ============================================================= 


 cedric output : friction bot wall =   0.11243318420927155        40.995555988592358        3.2919947691183709E-003
 cedric output : friction top wall =   0.11252944600919726        41.107975863343519        3.2975139484573111E-003

 INSTANT    0.192500000E+01   TIME STEP NUMBER              77
 ============================================================= 


 cedric output : friction bot wall =   0.11248089971246339        40.998035989250290        3.2914534012555242E-003
 cedric output : friction top wall =   0.11258183833276650        41.110923371129047        3.2969876590768113E-003

 INSTANT    0.195000000E+01   TIME STEP NUMBER              78
 ============================================================= 


 cedric output : friction bot wall =   0.11252829915953871        41.000514424808507        3.2909137433747705E-003
 cedric output : friction top wall =   0.11263409049589693        41.113870860772849        3.2964666415677560E-003

 INSTANT    0.197500000E+01   TIME STEP NUMBER              79
 ============================================================= 


 cedric output : friction bot wall =   0.11257538866576317        41.002989435043226        3.2903757237166455E-003
 cedric output : friction top wall =   0.11268621434643043        41.116819662535434        3.2959511130025328E-003

 INSTANT    0.200000000E+01   TIME STEP NUMBER              80
 ============================================================= 


 cedric output : friction bot wall =   0.11262217415065384        41.005459749143334        3.2898392749331927E-003
 cedric output : friction top wall =   0.11273822174472803        41.119771095098628        3.2954413199656430E-003
 cedric output : bulk fluid temperature =    1.9999999999999969        1.0308316373849700        1.2385264385831261E-010  -2.3662191218768306E-008   6.3538940929641323E-006   3.6858847904175210E-006  -6.4749906683026214E-006  -3.6909145607208386E-008   2.5530147526385994E-006  -9.9770459491733699E-006  -4.6515951500991774E-006  -2.7373451530103865E-008

 INSTANT    0.202500000E+01   TIME STEP NUMBER              81
 ============================================================= 


 cedric output : friction bot wall =   0.11266866134688108        41.007922804216584        3.2893043338285280E-003
 cedric output : friction top wall =   0.11279012457082993        41.122728668404662        3.2949375343159812E-003

 INSTANT    0.205000000E+01   TIME STEP NUMBER              82
 ============================================================= 


 cedric output : friction bot wall =   0.11271485580867607        41.010376909299261        3.2887708410761149E-003
 cedric output : friction top wall =   0.11284193473483525        41.125693478400116        3.2944400482546560E-003

 INSTANT    0.207500000E+01   TIME STEP NUMBER              83
 ============================================================= 


 cedric output : friction bot wall =   0.11276076291941187        41.012820354155579        3.2882387409929542E-003
 cedric output : friction top wall =   0.11289366418425525        41.128667491587343        3.2939491685403202E-003

 INSTANT    0.210000000E+01   TIME STEP NUMBER              84
 ============================================================= 


 cedric output : friction bot wall =   0.11280638789896505        41.015251139363265        3.2877079813584675E-003
 cedric output : friction top wall =   0.11294532491559867        41.131652395993441        3.2934652111799058E-003

 INSTANT    0.212500000E+01   TIME STEP NUMBER              85
 ============================================================= 


 cedric output : friction bot wall =   0.11285173581069252        41.017667906421700        3.2871785131530036E-003
 cedric output : friction top wall =   0.11299692898421977        41.134649359399283        3.2929884961716395E-003

 INSTANT    0.215000000E+01   TIME STEP NUMBER              86
 ============================================================= 


 cedric output : friction bot wall =   0.11289681156815312        41.020067973714454        3.2866502902958511E-003
 cedric output : friction top wall =   0.11304848851176641        41.137661053908701        3.2925193421449489E-003

 INSTANT    0.217500000E+01   TIME STEP NUMBER              87
 ============================================================= 


 cedric output : friction bot wall =   0.11294161994140468        41.022449651514208        3.2861232694223691E-003
 cedric output : friction top wall =   0.11310001570056327        41.140689217808003        3.2920580632738458E-003

 INSTANT    0.220000000E+01   TIME STEP NUMBER              88
 ============================================================= 


 cedric output : friction bot wall =   0.11298616556306341        41.024809543681663        3.2855974096663784E-003
 cedric output : friction top wall =   0.11315152284867408        41.143738108700838        3.2916049671362661E-003

 INSTANT    0.222500000E+01   TIME STEP NUMBER              89
 ============================================================= 


 cedric output : friction bot wall =   0.11303045293376442        41.027148154164536        3.2850726724176806E-003
 cedric output : friction top wall =   0.11320302236526172        41.146810139012082        3.2911603544061698E-003

 INSTANT    0.225000000E+01   TIME STEP NUMBER              90
 ============================================================= 


 cedric output : friction bot wall =   0.11307448642728449        41.029460963680528        3.2845490211320292E-003
 cedric output : friction top wall =   0.11325452677947752        41.149908669285594        3.2907245191946813E-003
 cedric output : bulk fluid temperature =    2.2499999999999960        1.0305321115761581        4.2413797133822665E-010  -2.1945423499210228E-008   6.3396648026128178E-006   3.6556179366234946E-006  -6.4504413272515457E-006  -3.4495949402714106E-008   2.5409266148192467E-006  -9.9452891951459668E-006  -4.6237424941585939E-006  -2.5564023291243005E-008

 INSTANT    0.227500000E+01   TIME STEP NUMBER              91
 ============================================================= 


 cedric output : friction bot wall =   0.11311827029567907        41.031745954068008        3.2840264211566770E-003
 cedric output : friction top wall =   0.11330604874802569        41.153035673427325        3.2902977523352746E-003

 INSTANT    0.230000000E+01   TIME STEP NUMBER              92
 ============================================================= 


 cedric output : friction bot wall =   0.11316180867396759        41.034001041067512        3.2835048395171607E-003
 cedric output : friction top wall =   0.11335760106119669        41.156191672421059        3.2898803457950213E-003

 INSTANT    0.232500000E+01   TIME STEP NUMBER              93
 ============================================================= 


 cedric output : friction bot wall =   0.11320510558514352        41.036221833026779        3.2829842447338478E-003
 cedric output : friction top wall =   0.11340919665308724        41.159369507921902        3.2894725978922217E-003

 INSTANT    0.235000000E+01   TIME STEP NUMBER              94
 ============================================================= 


 cedric output : friction bot wall =   0.11324816493423294        41.038416203240416        3.2824646060804949E-003
 cedric output : friction top wall =   0.11346084862246353        41.162594682608798        3.2890748103640180E-003

 INSTANT    0.237500000E+01   TIME STEP NUMBER              95
 ============================================================= 


 cedric output : friction bot wall =   0.11329099051315658        41.040573644200975        3.2819458948315245E-003
 cedric output : friction top wall =   0.11351257023171646        41.165841436642324        3.2886873229309426E-003

 INSTANT    0.240000000E+01   TIME STEP NUMBER              96
 ============================================================= 


 cedric output : friction bot wall =   0.11333358605127183        41.042700195611950        3.2814280837382692E-003
 cedric output : friction top wall =   0.11356437485691510        41.169118819698497        3.2883104678163785E-003

[...]
m  rij[XZ]                   -0.00071003      0.00073781      2.1747e-06
m  diric_mean                          0         0.15823        0.050498
m  diric_variance                      0      0.00070051      0.00014608
m  diric_flux[X]                       0         0.19639        0.052565
m  diric_flux[Y]             -0.00094812      0.00080601       2.566e-07
m  diric_flux[Z]             -0.00051139      0.00048152     -1.4435e-05
m  diric_flux                        0         0.19639        0.052565
m  neuma_mean                   -0.13249        0.025919       -0.014397
m  neuma_variance                      0      0.00091359      0.00021492
m  neuma_flux[X]               -0.036604        0.032424      -0.0024166
m  neuma_flux[Y]             -0.00046654      0.00050308      1.2891e-07
m  neuma_flux[Z]             -0.00025966       0.0002569      6.0442e-07
m  neuma_flux                        0        0.036605       0.0098422
m  g05a05_mean                   -0.4192         0.21528        0.034839
m  g05a05_variance            2.2698e-07      0.00075782      0.00017278
m  g05a05_flux[X]                      0         0.26701        0.076853
m  g05a05_flux[Y]             -0.0012133      0.00099264      3.7446e-07
m  g05a05_flux[Z]            -0.00075077      0.00076875     -2.0625e-05
m  g05a05_flux                       0         0.26701        0.076853
m  g05a1_mean                   -0.77215          0.3401        0.084935
m  g05a1_variance             4.1888e-07      0.00079487      0.00019405
m  g05a1_flux[X]                       0          0.4217         0.12895
m  g05a1_flux[Y]              -0.0017731       0.0014086      2.8737e-07
m  g05a1_flux[Z]              -0.0012463       0.0013658     -3.4269e-05
m  g05a1_flux                        0          0.4217         0.12895
m  g05a2_mean                     -1.478         0.58995         0.18507
m  g05a2_variance             6.1432e-07      0.00083305      0.00021751
m  g05a2_flux[X]                       0         0.73132         0.23317
m  g05a2_flux[Y]              -0.0028959       0.0022592      2.1723e-07
m  g05a2_flux[Z]              -0.0022356       0.0025572     -6.1655e-05
m  g05a2_flux                        0         0.73132         0.23317
m  g1a05_mean                   -0.41927          0.2154        0.034834
m  g1a05_variance             5.5443e-08      0.00074432      0.00016555
m  g1a05_flux[X]                       0         0.26716        0.076875
m  g1a05_flux[Y]              -0.0012141      0.00099297      3.7645e-07
m  g1a05_flux[Z]              -0.0007508      0.00076975      -2.066e-05
m  g1a05_flux                        0         0.26716        0.076875
m  g1a1_mean                    -0.77229         0.34024        0.084938
m  g1a1_variance              8.4601e-08      0.00077965      0.00018359
m  g1a1_flux[X]                        0         0.42186         0.12898
m  g1a1_flux[Y]               -0.0017738       0.0014093      3.0533e-07
m  g1a1_flux[Z]               -0.0012463       0.0013668     -3.4302e-05
m  g1a1_flux                         0         0.42186         0.12898
m  g1a2_mean                     -1.4794         0.59061         0.18528
m  g1a2_variance              1.4899e-07      0.00082085      0.00020603
m  g1a2_flux[X]                        0         0.73213         0.23346
m  g1a2_flux[Y]               -0.0028993       0.0022616      2.3258e-07
m  g1a2_flux[Z]               -0.0022383       0.0025614     -6.1746e-05
m  g1a2_flux                         0         0.73213         0.23346
m  g2a05_mean                   -0.42057         0.21627        0.034947
m  g2a05_variance             2.3618e-08      0.00074375      0.00016115
m  g2a05_flux[X]                       0         0.26825        0.077222
m  g2a05_flux[Y]              -0.0012193      0.00099647      3.6095e-07
m  g2a05_flux[Z]              -0.0007546      0.00077423     -2.0784e-05
m  g2a05_flux                        0         0.26825        0.077222
m  g2a1_mean                     -0.7743         0.34138        0.085183
m  g2a1_variance              2.2685e-08      0.00077224      0.00017552
m  g2a1_flux[X]                        0         0.42328         0.12944
m  g2a1_flux[Y]                 -0.00178       0.0014139      3.1905e-07
m  g2a1_flux[Z]               -0.0012512       0.0013729     -3.4459e-05
m  g2a1_flux                         0         0.42328         0.12944
m  g2a2_mean                      -1.481         0.59154          0.1855
m  g2a2_variance               2.621e-08      0.00080902      0.00019469
m  g2a2_flux[X]                        0         0.73329         0.23382
m  g2a2_flux[Y]                -0.002904       0.0022653      2.4884e-07
m  g2a2_flux[Z]               -0.0022419        0.002566     -6.1871e-05
m  g2a2_flux                         0         0.73329         0.23382
m  u_grad[XX]                 -0.0043561       0.0043684      2.3663e-21
m  u_grad[XY]                    -10.092          10.286     -0.00057452
m  u_grad[XZ]                   -0.19364         0.24019      3.3593e-18
m  u_grad[YX]                -0.00073849      0.00065062     -3.4957e-22
m  u_grad[YY]                  -0.031234        0.026866      5.3367e-08
m  u_grad[YZ]                  -0.026165        0.030653      2.6159e-19
m  u_grad[ZX]                -0.00099377       0.0010618     -3.7646e-22
m  u_grad[ZY]                   -0.11249          0.1068      0.00038487
m  u_grad[ZZ]                  -0.026904        0.028995     -2.5126e-19
m  u_diss[XX]                          0        0.090903        0.020034
m  u_diss[XY]                          0          13.869          1.7742
m  u_diss[XZ]                          0          2.2302         0.39412
m  u_diss[YX]                          0        0.014032       0.0028629
m  u_diss[YY]                          0        0.095036        0.025038
m  u_diss[YZ]                          0         0.11058        0.022888
m  u_diss[ZX]                          0         0.02508       0.0065727
m  u_diss[ZY]                          0           1.868         0.20838
m  u_diss[ZZ]                          0         0.11956        0.032545
m  mu_t_u_grad[XX]            -2.794e-08      3.4265e-05      5.9423e-06
m  mu_t_u_grad[XY]           -8.1189e-05      7.9159e-05     -3.7097e-08
m  mu_t_u_grad[XZ]           -3.1552e-05      3.3961e-05       1.062e-08
m  mu_t_u_grad[YX]            -3.947e-06      3.5787e-06     -1.5499e-08
m  mu_t_u_grad[YY]           -2.9207e-05      6.1061e-07     -4.6715e-06
m  mu_t_u_grad[YZ]           -2.7667e-05      2.9507e-05     -5.7639e-08
m  mu_t_u_grad[ZX]           -7.3637e-06       6.265e-06     -7.0026e-09
m  mu_t_u_grad[ZY]           -3.2802e-05      3.4026e-05      7.9051e-08
m  mu_t_u_grad[ZZ]           -1.1693e-05       6.182e-06     -9.6224e-07
m  mu_t_u_diss                         0      0.00080291      0.00017159
m  diric_grad[X]             -0.00045882      0.00050838     -8.6048e-22
m  diric_grad[Y]                 -1.0486          1.0682     -2.7589e-05
m  diric_grad[Z]                -0.02221        0.026206      3.5107e-19
m  diric_grad                        0          1.0682         0.18269
m  diric_diss[XX]                      0       0.0023465      0.00054614
m  diric_diss[YY]                      0          0.1651         0.02493
m  diric_diss[ZZ]                      0        0.034201       0.0066037
m  diric_diss[XY]             -0.0084044       0.0084306      8.3319e-06
m  diric_diss[YZ]             -0.0038943       0.0029463     -2.0004e-05
m  diric_diss[XZ]            -0.00046661      0.00048578     -1.8389e-06
m  diric_mu_t_t_grad[X]      -8.5381e-09      1.0893e-05      1.9189e-06
m  diric_mu_t_t_grad[Y]       -2.591e-05      2.5469e-05      -1.976e-08
m  diric_mu_t_t_grad[Z]      -5.1412e-06      4.9918e-06       2.958e-09
m  diric_mu_t_t_grad                 0      2.6835e-05      6.0389e-06
m  diric_mu_t_t_diss                   0      1.3793e-05      3.0865e-06
m  neuma_grad[X]             -0.00070253      0.00071311     -1.9899e-21
m  neuma_grad[Y]                 -1.0002               1     -3.5285e-05
m  neuma_grad[Z]               -0.028608        0.038263      5.7824e-19
m  neuma_grad                        0          1.0004         0.18045
m  neuma_diss[XX]                      0       0.0023803      0.00056304
m  neuma_diss[YY]                      0         0.11299        0.019272
m  neuma_diss[ZZ]                      0        0.038101       0.0087275
m  neuma_diss[XY]             -0.0086809       0.0086217      9.5465e-06
m  neuma_diss[YZ]             -0.0047726        0.003433     -3.5891e-05
m  neuma_diss[XZ]            -0.00046987      0.00047331     -1.5318e-06
m  neuma_mu_t_t_grad[X]      -7.7205e-09      1.1025e-05      1.9194e-06
m  neuma_mu_t_t_grad[Y]      -2.5001e-05      2.4564e-05     -2.9184e-08
m  neuma_mu_t_t_grad[Z]      -5.4494e-06      5.1093e-06      5.3975e-09
m  neuma_mu_t_t_grad                 0      2.5949e-05       5.804e-06
m  neuma_mu_t_t_diss                   0      1.4342e-05      3.1146e-06
m  g05a05_grad[X]            -0.00055856      0.00060646     -4.8402e-22
m  g05a05_grad[Y]                -1.0259          1.0323     -0.00044245
m  g05a05_grad[Z]              -0.025602        0.030678      6.8838e-19
m  g05a05_grad              0.00061986          1.0323         0.43467
m  g05a05_diss[XX]            4.1477e-10       0.0022827      0.00052512
m  g05a05_diss[YY]            4.4751e-08          0.1108        0.022027
m  g05a05_diss[ZZ]            3.3427e-07        0.035587       0.0072933
m  g05a05_diss[XY]            -0.0086199       0.0086674      1.2959e-05
m  g05a05_diss[YZ]            -0.0037541       0.0031563     -1.7108e-05
m  g05a05_diss[XZ]           -0.00047875       0.0004799     -1.6143e-06
m  g05a05_mu_t_t_grad[X]     -8.0795e-09      1.0172e-05      1.7702e-06
m  g05a05_mu_t_t_grad[Y]     -2.4449e-05      2.4099e-05     -3.1869e-08
m  g05a05_mu_t_t_grad[Z]     -4.9709e-06      4.7672e-06       3.084e-09
m  g05a05_mu_t_t_grad                0      2.5409e-05      5.6156e-06
m  g05a05_mu_t_t_diss                  0       1.387e-05      3.0254e-06
m  g05a1_grad[X]             -0.00059588      0.00063466     -1.3445e-21
m  g05a1_grad[Y]                 -1.0187          1.0215     -0.00043587
m  g05a1_grad[Z]               -0.026557         0.03275      6.1266e-19
m  g05a1_grad               0.00063402          1.0215         0.68826
m  g05a1_diss[XX]             5.7024e-10       0.0022894      0.00052854
m  g05a1_diss[YY]             8.3305e-08         0.10634        0.022053
m  g05a1_diss[ZZ]             5.8906e-07        0.036252       0.0078681
m  g05a1_diss[XY]             -0.0086976       0.0086892      1.1945e-05
m  g05a1_diss[YZ]             -0.0039437       0.0032395     -1.8131e-05
m  g05a1_diss[XZ]            -0.00047614      0.00047863     -1.5463e-06
m  g05a1_mu_t_t_grad[X]      -7.8041e-09      1.0194e-05        1.77e-06
m  g05a1_mu_t_t_grad[Y]      -2.4275e-05      2.3962e-05     -3.0479e-08
m  g05a1_mu_t_t_grad[Z]      -5.0108e-06      4.8335e-06      3.4614e-09
m  g05a1_mu_t_t_grad                 0      2.5294e-05      5.5746e-06
m  g05a1_mu_t_t_diss                   0      1.3962e-05      3.0285e-06
m  g05a2_grad[X]               -0.000633      0.00066939     -2.6352e-21
m  g05a2_grad[Y]                 -2.0233           2.025      -0.0004253
m  g05a2_grad[Z]               -0.027511        0.034646      8.3983e-19
m  g05a2_grad               0.00064219           2.025          1.1959
m  g05a2_diss[XX]             6.3388e-10       0.0022991      0.00053318
m  g05a2_diss[YY]             1.2488e-07         0.10819        0.022892
m  g05a2_diss[ZZ]             8.5036e-07        0.036903       0.0085401
m  g05a2_diss[XY]             -0.0087809       0.0087301       1.119e-05
m  g05a2_diss[YZ]              -0.004095        0.003354     -2.0462e-05
m  g05a2_diss[XZ]            -0.00047966      0.00047878     -1.4835e-06
m  g05a2_mu_t_t_grad[X]      -7.7116e-09      1.0212e-05      1.7697e-06
m  g05a2_mu_t_t_grad[Y]        -2.42e-05      2.3849e-05     -2.9608e-08
m  g05a2_mu_t_t_grad[Z]      -5.0378e-06      4.9285e-06      3.7626e-09
m  g05a2_mu_t_t_grad                 0      2.5182e-05      5.5372e-06
m  g05a2_mu_t_t_diss                   0      1.4054e-05      3.0341e-06
m  g1a05_grad[X]              -0.0005564      0.00060582     -2.4739e-21
m  g1a05_grad[Y]                 -1.0262          1.0322     -0.00041585
m  g1a05_grad[Z]               -0.025697        0.030332      5.7136e-19
m  g1a05_grad               0.00062743          1.0322         0.43487
m  g1a05_diss[XX]             6.6663e-11       0.0022838      0.00052418
m  g1a05_diss[YY]             1.6374e-08         0.11449         0.02259
m  g1a05_diss[ZZ]             1.6042e-07          0.0354        0.007138
m  g1a05_diss[XY]             -0.0086273       0.0086683      1.2769e-05
m  g1a05_diss[YZ]             -0.0037632       0.0031482     -1.3154e-05
m  g1a05_diss[XZ]            -0.00047922      0.00048039     -1.6331e-06
m  g1a05_mu_t_t_grad[X]      -8.1826e-09      1.0176e-05      1.7707e-06
m  g1a05_mu_t_t_grad[Y]      -2.4492e-05      2.4129e-05     -3.1312e-08
m  g1a05_mu_t_t_grad[Z]      -4.9736e-06      4.7527e-06      2.9669e-09
m  g1a05_mu_t_t_grad                 0       2.545e-05      5.6309e-06
m  g1a05_mu_t_t_diss                   0      1.3857e-05      3.0268e-06
m  g1a1_grad[X]              -0.00059259      0.00063436      1.6134e-21
m  g1a1_grad[Y]                  -1.0192          1.0214     -0.00044877
m  g1a1_grad[Z]                -0.026654         0.03241      6.7461e-19
m  g1a1_grad                0.00063472          1.0214          0.6885
m  g1a1_diss[XX]              8.4513e-11       0.0022876      0.00052676
m  g1a1_diss[YY]              3.4125e-08         0.10781        0.022692
m  g1a1_diss[ZZ]              2.6574e-07        0.036038       0.0076344
m  g1a1_diss[XY]              -0.0086939        0.008682      1.2087e-05
m  g1a1_diss[YZ]              -0.0038536       0.0031975     -1.2474e-05
m  g1a1_diss[XZ]              -0.0004767      0.00047864     -1.5677e-06
m  g1a1_mu_t_t_grad[X]       -7.9162e-09      1.0194e-05      1.7705e-06
m  g1a1_mu_t_t_grad[Y]       -2.4359e-05      2.3993e-05      -3.064e-08
m  g1a1_mu_t_t_grad[Z]       -5.0155e-06      4.8253e-06      3.3513e-09
m  g1a1_mu_t_t_grad                  0      2.5357e-05      5.5906e-06
m  g1a1_mu_t_t_diss                    0      1.3946e-05      3.0288e-06
m  g1a2_grad[X]              -0.00063211      0.00067317      2.7966e-21
m  g1a2_grad[Y]                  -2.0274          2.0281     -0.00047342
m  g1a2_grad[Z]                -0.027699        0.034436      6.7461e-19
m  g1a2_grad                0.00064103          2.0281          1.1975
m  g1a2_diss[XX]              9.5758e-11       0.0023121      0.00053384
m  g1a2_diss[YY]               5.672e-08         0.10821        0.024002
m  g1a2_diss[ZZ]              3.6925e-07        0.036866       0.0082858
m  g1a2_diss[XY]              -0.0088568       0.0088009      1.1449e-05
m  g1a2_diss[YZ]              -0.0040536       0.0033009     -1.3559e-05
m  g1a2_diss[XZ]             -0.00048148       0.0004819     -1.5022e-06
m  g1a2_mu_t_t_grad[X]       -7.7597e-09      1.0236e-05      1.7723e-06
m  g1a2_mu_t_t_grad[Y]       -2.4162e-05      2.3771e-05      -2.987e-08
m  g1a2_mu_t_t_grad[Z]       -5.0301e-06       4.898e-06      3.6391e-09
m  g1a2_mu_t_t_grad                  0      2.5135e-05      5.5178e-06
m  g1a2_mu_t_t_diss                    0      1.4112e-05      3.0454e-06
m  g2a05_grad[X]             -0.00056028      0.00061197      1.2369e-21
m  g2a05_grad[Y]                 -1.0328          1.0383     -0.00033363
m  g2a05_grad[Z]               -0.025986        0.030121      6.9527e-19
m  g2a05_grad               0.00064636          1.0383         0.43703
m  g2a05_diss[XX]             9.2708e-12       0.0023217      0.00053154
m  g2a05_diss[YY]             2.9147e-09          0.1223        0.023536
m  g2a05_diss[ZZ]             3.8925e-08        0.035649       0.0070719
m  g2a05_diss[XY]              -0.008823       0.0088546      1.2424e-05
m  g2a05_diss[YZ]             -0.0038834       0.0031846      -9.917e-06
m  g2a05_diss[XZ]            -0.00048698      0.00048947      -1.668e-06
m  g2a05_mu_t_t_grad[X]      -8.2709e-09      1.0241e-05      1.7793e-06
m  g2a05_mu_t_t_grad[Y]      -2.4568e-05      2.4179e-05      -2.997e-08
m  g2a05_mu_t_t_grad[Z]      -4.9752e-06      4.7419e-06      2.7932e-09
m  g2a05_mu_t_t_grad                 0      2.5426e-05      5.6138e-06
m  g2a05_mu_t_t_diss                   0      1.4038e-05      3.0647e-06
m  g2a1_grad[X]              -0.00059438      0.00064065      5.9158e-22
m  g2a1_grad[Y]                  -1.0245          1.0263     -0.00042274
m  g2a1_grad[Z]                -0.026935        0.032154      7.0215e-19
m  g2a1_grad                0.00064367          1.0263         0.69124
m  g2a1_diss[XX]              1.3032e-11       0.0023186      0.00053251
m  g2a1_diss[YY]              6.2573e-09         0.11263        0.023684
m  g2a1_diss[ZZ]              7.4357e-08        0.036178       0.0074702
m  g2a1_diss[XY]              -0.0088633       0.0088446      1.2286e-05
m  g2a1_diss[YZ]              -0.0037958       0.0032026     -7.2042e-06
m  g2a1_diss[XZ]              -0.0004836      0.00048612     -1.6056e-06
m  g2a1_mu_t_t_grad[X]       -8.0222e-09      1.0246e-05      1.7777e-06
m  g2a1_mu_t_t_grad[Y]       -2.4434e-05      2.3963e-05     -3.0615e-08
m  g2a1_mu_t_t_grad[Z]       -5.0107e-06      4.8164e-06      3.1624e-09
m  g2a1_mu_t_t_grad                  0      2.5339e-05      5.5711e-06
m  g2a1_mu_t_t_diss                    0        1.41e-05      3.0607e-06
m  g2a2_grad[X]              -0.00062997      0.00067511     -1.0218e-21
m  g2a2_grad[Y]                  -2.0323           2.032     -0.00044948
m  g2a2_grad[Z]                -0.027883        0.034146      7.8476e-19
m  g2a2_grad                0.00064899          2.0324          1.1996
m  g2a2_diss[XX]              1.7452e-11       0.0023216      0.00053451
m  g2a2_diss[YY]              1.0887e-08         0.10844        0.025141
m  g2a2_diss[ZZ]              1.0643e-07        0.036819       0.0080155
m  g2a2_diss[XY]               -0.008911       0.0088502       1.158e-05
m  g2a2_diss[YZ]              -0.0039819       0.0032427     -6.4423e-06
m  g2a2_diss[XZ]             -0.00048136      0.00048431     -1.5349e-06
m  g2a2_mu_t_t_grad[X]       -7.8472e-09      1.0251e-05      1.7756e-06
m  g2a2_mu_t_t_grad[Y]       -2.4258e-05      2.3778e-05     -2.9933e-08
m  g2a2_mu_t_t_grad[Z]        -5.037e-06       4.886e-06      3.5154e-09
m  g2a2_mu_t_t_grad                  0      2.5198e-05      5.5238e-06
m  g2a2_mu_t_t_diss                    0      1.4159e-05      3.0578e-06


  ** Computed values on cells
     ------------------------

   criterion               minimum         maximum        set mean    spatial mean
   ---------------  --------------  --------------  --------------  --------------
   Courant/Fourier       0.0042288         0.75167         0.16833         0.12266


  ** Temporal moment accumulated weights
     -----------------------------------

   id   n it.             value
   ---- -------- --------------
   0    100001             2500


===============================================================



                 FINAL STAGE OF THE CALCULATION              
                 ==============================              


 =========================================================== 





 =========================================================== 




                      END OF CALCULATION                     
                      ==================                     


===============================================================

 Destroying structures and ending computation

