command: 
 ./cs_solver

***************************************************************

                                  (R)
                      Code_Saturne

                      Version 5.0.4-patch


  Copyright (C) 1998-2017 EDF S.A., France

  revision svn10739
  build Mon 27 Nov 2017 11:00:15 AM CET
  MPI version 3.0 (Open MPI 1.8.5)


  The Code_Saturne CFD tool  is free software;
  you can redistribute it and/or modify it under the terms
  of the GNU General Public License as published by the
  Free Software Foundation; either version 2 of the License,
  or (at your option) any later version.

  The Code_Saturne CFD tool is distributed in the hope that
  it will be useful, but WITHOUT ANY WARRANTY; without even
  the implied warranty of MERCHANTABILITY or FITNESS FOR A
  PARTICULAR PURPOSE.  See the GNU General Public License
  for more details.

***************************************************************


Local case configuration:

  Date:                Thu 30 Nov 2017 03:08:19 PM CET
  System:              Linux 3.0.42-0.7-default
  Machine:             razor31
  Processor:           model name	: Intel(R) Xeon(R) CPU E5-2697 v2 @ 2.70GHz
  Memory:              129040 MB
  User:                flageul (Cedric Flageul)
  Directory:           /home/r4/flageul/saturne/400_cht/wale_pr1/RESU/bigrun
  MPI ranks:           40 (appnum attribute: 0)
  I/O read method:     collective MPI-IO (explicit offsets)
  I/O write method:    collective MPI-IO (explicit offsets)
  I/O rank step:        1

  External libraries for partitioning:
    PT-SCOTCH 6.0.4

 Reading metadata from file: "mesh_input"

===============================================================

                   CALCULATION PREPARATION
                   =======================


 ===========================================================



@
@@@@@@@@@@@@@@@@@@@@@@@@@@@@@@@@@@@@@@@@@@@@@@@@@@@@@@@@@@@@@
@
@ @@   WARNING :      WHEN READING INPUT DATA
@    =========
@   NON-STANDARD CHOICE WITH  TIME-SCHEME
@
@   ORDRE 2 EN TEMPS or the
@   THE VALUE RECOMMANDED FOR THE PARAMETER NSWRSM FOR
@        VARIABLEPressure         IS        10
@     NSWRSM IS NOW IMPOSED AS         5
@
@  computation will go on
@
@ Check the input data given through the User Interface
@   or in cs_user_parameters.f90.
@
@
@@@@@@@@@@@@@@@@@@@@@@@@@@@@@@@@@@@@@@@@@@@@@@@@@@@@@@@@@@@@@
@

@
@@@@@@@@@@@@@@@@@@@@@@@@@@@@@@@@@@@@@@@@@@@@@@@@@@@@@@@@@@@@@
@
@ @@   WARNING :      WHEN READING INPUT DATA
@    =========
@   NON-STANDARD CHOICE WITH  TIME-SCHEME
@
@   ORDRE 2 EN TEMPS or the
@   THE VALUE RECOMMANDED FOR THE PARAMETER NSWRSM FOR
@        VARIABLEPressure         IS        10
@     NSWRSM IS NOW IMPOSED AS         5
@
@  computation will go on
@
@ Check the input data given through the User Interface
@   or in cs_user_parameters.f90.
@
@
@@@@@@@@@@@@@@@@@@@@@@@@@@@@@@@@@@@@@@@@@@@@@@@@@@@@@@@@@@@@@
@

@
@@@@@@@@@@@@@@@@@@@@@@@@@@@@@@@@@@@@@@@@@@@@@@@@@@@@@@@@@@@@@
@
@ @@   WARNING :      WHEN READING INPUT DATA
@    =========
@   NON-STANDARD CHOICE WITH  TIME-SCHEME
@
@   ORDRE 2 EN TEMPS or the
@   THE VALUE RECOMMANDED FOR THE PARAMETER NSWRSM FOR
@        VARIABLEPressure         IS        10
@     NSWRSM IS NOW IMPOSED AS         5
@
@  computation will go on
@
@ Check the input data given through the User Interface
@   or in cs_user_parameters.f90.
@
@
@@@@@@@@@@@@@@@@@@@@@@@@@@@@@@@@@@@@@@@@@@@@@@@@@@@@@@@@@@@@@
@

@
@@@@@@@@@@@@@@@@@@@@@@@@@@@@@@@@@@@@@@@@@@@@@@@@@@@@@@@@@@@@@
@
@ @@   WARNING :      WHEN READING INPUT DATA
@    =========
@   NON-STANDARD CHOICE WITH  TIME-SCHEME
@
@   ORDRE 2 EN TEMPS or the
@   THE VALUE RECOMMANDED FOR THE PARAMETER NSWRSM FOR
@        VARIABLEPressure         IS        10
@     NSWRSM IS NOW IMPOSED AS         5
@
@  computation will go on
@
@ Check the input data given through the User Interface
@   or in cs_user_parameters.f90.
@
@
@@@@@@@@@@@@@@@@@@@@@@@@@@@@@@@@@@@@@@@@@@@@@@@@@@@@@@@@@@@@@
@

@
@@@@@@@@@@@@@@@@@@@@@@@@@@@@@@@@@@@@@@@@@@@@@@@@@@@@@@@@@@@@@
@
@ @@   WARNING :      WHEN READING INPUT DATA
@    =========
@   CHOICE OF TIME-SCHEME
@
@     TIME-SCHEME FOR VELOCITY IS SECOND ORDER
@       (THETAV =   0.50E+00)
@     CERTAIN TERMS ARE HOWEVER FIRST ORDER IN TIME  WITH
@       THE FOLLOWING SETTINGS:
@
@ parameters       ISTMPF ISNO2T ISTO2T IROEXT IVIEXT ICPEXT
@ Values  entered      2      1      0      0      0      0
@
@  computation will go on.
@
@ Check the input data given through the User Interface
@   or in cs_user_parameters.f90.
@
@
@@@@@@@@@@@@@@@@@@@@@@@@@@@@@@@@@@@@@@@@@@@@@@@@@@@@@@@@@@@@@
@


Warning in LES, while reading convection scheme parameters for variable diric
-------
Parameter: var_cal_opt.isstpc (slope test) = 1
while its recommended value is equal to 0.

Warning in LES, while reading convection scheme parameters for variable neuma
-------
Parameter: var_cal_opt.isstpc (slope test) = 1
while its recommended value is equal to 0.

Warning in LES, while reading convection scheme parameters for variable 11
-------
Parameter: var_cal_opt.isstpc (slope test) = 1
while its recommended value is equal to 0.

Warning in LES, while reading convection scheme parameters for variable 12
-------
Parameter: var_cal_opt.isstpc (slope test) = 1
while its recommended value is equal to 0.

 No error detected during the data verification
                          cs_user_parameters.f90 and others).


 ===========================================================

               CALCULATION PARAMETERS SUMMARY
               ==============================

 -----------------------------------------------------------


 ** DIMENSIONS
    ----------

 --- Physics
       NVAR   =              8 (Nb variables                )
       NSCAL  =              4 (Nb scalars                  )
       NSCAUS =              4 (Nb user scalars             )
       NSCAPP =              0 (Nb specific physics scalars )


 -----------------------------------------------------------


 ** VOF METHOD                              
    ----------------------------------------

       IVOFMT =             -1 ( -1: inactive                )
                               (  0: active                  )


 ** HOMOGENEOUS MIXTURE MODEL FOR CAVITATION
    ----------------------------------------

       ICAVIT =             -1 (-1: single phase flow       )
                               ( 0: no vap./cond. model     )
                               ( 1: Merkle's model        )


 -----------------------------------------------------------


 ** TIME STEPPING
    -------------

 --- Per-variable properties

------------------------------------
 Variable          ISTAT      CDTVAR
------------------------------------
 Velocity              1  0.1000E+01
 Pressure              0  0.1000E+01
 diric                 1  0.1000E+01
 neuma                 1  0.1000E+01
 11                    1  0.1000E+01
 12                    1  0.1000E+01
----------------------------

       ISTAT  =  0 ou  1       (1 for unsteady              )
       CDTVAR >  0             (time step multiplier        )

 --- Order of base time stepping scheme
       ISCHTP =              2 (1: order 1; 2: order 2      )
                                                             

 -----------------------------------------------------------


 ** STOKES
    ------

  -- Phase continue :

       ISTMPF =              2 (time scheme for flow
                               (0: explicit (THETFL = 0     )
                               (1: std scheme (Saturne 1.0  )
                               (2: 2nd-order (THETFL = 0.5  )
       THETFL =    0.50000E+00 (theta for mass flow         )
       IROEXT =              0 (density extrapolation
                               (0: explicit
                               (1: n+thetro with thetro=1/2
                               (2: n+thetro with thetro=1
       THETRO =    0.00000E+00 (theta for density
                               ((1+theta).new-theta.old
       IVIEXT =              0 (total viscosity extrapolation
                               (0: explicit
                               (1: n+thetvi with thetro=1/2
                               (2: n+thetvi with thetro=1
       THETVI =    0.00000E+00 (theta for total viscosity
                               ((1+theta).new-theta.old
       ICPEXT =              0 (specific heat extrapolation
                               (0: explicit
                               (1: n+thetcp with thetro=1/2
                               (2: n+thetcp with thetro=1
       THETCP =    0.00000E+00 (specific heat theta-scheme
                               ((1+theta).new-theta.old
       THETSN =    0.50000E+00 (Nav-Stokes S.T. theta scheme)
                               ((1+theta).new-theta.old
       THETST =    0.00000E+00 (Turbulence S.T. theta-scheme)
                               ((1+theta).new-theta.old
       EPSUP  =    0.10000E-04 (Velocity/pressure coupling
                                stop test                   )


 -----------------------------------------------------------


 ** BASE ITERATIVE SOLVERS
    ----------------------

------------------------------------
 Variable              EPSILO IDIRCL
------------------------------------
 Velocity          0.1000E-04      1
 Pressure          0.1000E-04      1
 diric             0.1000E-04      1
 neuma             0.1000E-04      1
 11                0.1000E-04      1
 12                0.1000E-04      1
------------------------------------

       EPSILO =                (resolution precision)
       IDIRCL = 0 ou 1         (shift diagonal if
                                ISTAT=0 and no Dirichlet)


 -----------------------------------------------------------


 ** SCALARS
    -------

       ITBRRB =              0 (T or H reconstruction at bdy)

-------------------------------------------------------------
 Variable         Number ISCACP  ITURT     VISLS0      SIGMAS
-------------------------------------------------------------
 diric                 1      0      0  0.1416E-03  0.1000E+01
 neuma                 2      0      0  0.1416E-03  0.1000E+01
 11                    3      0      0  0.1416E-03  0.1000E+01
 12                    4      0      0  0.1416E-03  0.1000E+01
-------------------------------------------------------------

------------------------------------
 Variable         Number      RVARFL
------------------------------------
 diric                 1  0.8000E+00
 neuma                 2  0.8000E+00
 11                    3  0.8000E+00
 12                    4  0.8000E+00
-------------------------------------------

-------------------------------------------------------
 Variable         Number ICLVFL      SCAMIN      SCAMAX
-------------------------------------------------------
 diric                 1     -1 -0.1000E+13  0.1000E+13
 neuma                 2     -1 -0.1000E+13  0.1000E+13
 11                    3     -1 -0.1000E+13  0.1000E+13
 12                    4     -1 -0.1000E+13  0.1000E+13
-------------------------------------------------------

-------------------------------------------------------------

       For each scalar, the number indicates it's rank
         in the list of all scalars. User scalars are placed
         first, from 1 to NSCAUS. Specific physics scalars
         are placed at the end, from
         NSCAUS+1 to NSCAPP+NSCAUS=NSCAL.

       ISCACP = 0 or 1     2   (use Cp or not               )
       VISLS0 = >0             (Reference viscosity         )
       SIGMAS = >0             (Schmidt                     )
       RVARFL = >0             (Rf, cf variance dissipation )
       ICLVFL = 0, 1 or 2      (Variance clipping mode      )
       SCAMIN =                (Min authorized value        )
       SCAMAX =                (Max authorized value        )
        For variances, SCAMIN is ignored and SCAMAX is used
          only if ICLVFL = 2

------------------------------------------------------
   Scalar        THETSS    IVSEXT      THETVS
------------------------------------------------------
          1  0.5000E+00         0  0.0000E+00
          2  0.5000E+00         0  0.0000E+00
          3  0.5000E+00         0  0.0000E+00
          4  0.5000E+00         0  0.0000E+00
------------------------------------------------------

       THETSS =                (theta for source terms      )
                               ((1+theta).new-theta.old     )
       IVSEXT =                (extrap. total viscosity     )
                               (0: explicit                 )
                               (1: n+thetvs with thetvs=1/2 )
                               (2: n+thetvs with thetvs=1   )
       THETVS =                (theta for scalar diffusivity
                               ((1+theta).new-theta.old     )


 -----------------------------------------------------------


 ** CALCULATION MANAGEMENT
    ----------------------

 --- Restarted calculation
       ISUITE =              0 (1: restarted calculation    )
       ILEAUX =              1 (1: read  restart/auxiliary  )
       IECAUX =              1 (1: write checkpoint/auxiliary)


 --- Calculation time
     The numbering of time steps and the measure of simulated
       physical time are absolute values, and not values
       relative to the current calculation.

       INPDT0 =              0 (1: 0 time step calcuation   )
       NTMABS =        4500000 (Final time step required    )

 --- CPU time margin
       TMARUS =   -0.10000E+01 (CPU time margin before stop )


 -----------------------------------------------------------


 ** INPUT-OUTPUT
    ------------

 --- Restart file
       NTSUIT =              0 (Checkpoint frequency )

 --- Probe history files
       NTHIST =              1 (Output frequency     )
       FRHIST =     -.10000E+01 (Output frequency (s) )
         --           --                --

 --- Log files
       NTLIST =           1000 (Output frequency     )

       Number Name                IWARNI verbosity level
                                      (-999: not applicable)

 Velocity                       0
 Pressure                       0
 diric                          0
 neuma                          0
 11                             0
 12                             0
 Laminar Viscosit            -999
 Turb Viscosity              -999
 CFL                         -999
 Fourier Number              -999
 Total Pressure              -999
 11 Diff                     -999
 12 Diff                     -999
 11 Rho                      -999
 12 Rho                      -999
 Yplus                       -999
 mu_t                        -999
 u_mean                      -999
 rij                         -999
 diric_mean                  -999
 diric_variance              -999
 diric_flux                  -999
 neuma_mean                  -999
 neuma_variance              -999
 neuma_flux                  -999
 11_mean                     -999
 11_variance                 -999
 11_flux                     -999
 12_mean                     -999
 12_variance                 -999
 12_flux                     -999
 u_grad                      -999
 u_diss                      -999
 mu_t_u_grad                 -999
 mu_t_u_diss                 -999
 diric_grad                  -999
 diric_diss                  -999
 diric_mu_t_t_gra            -999
 diric_mu_t_t_dis            -999
 neuma_grad                  -999
 neuma_diss                  -999
 neuma_mu_t_t_gra            -999
 neuma_mu_t_t_dis            -999
 11_grad                     -999
 11_diss                     -999
 11_mu_t_t_grad              -999
 11_mu_t_t_diss              -999
 12_grad                     -999
 12_diss                     -999
 12_mu_t_t_grad              -999
 12_mu_t_t_diss              -999
         --           --                --

 --- Additional post-processing variables (ipstdv)
       ipstfo =              1 (Force exerted by the
                                     fluid on the boundary)
       ipstyp =              1 (y+ at boundary)
       ipsttp =              0 (T+ at boundary)
       ipstft =              1 (Thermal flux   at boundary)
       ipstnu =              0 (Dimensionless thermal
                                          flux at boundary)


 -----------------------------------------------------------


 ** ALE METHOD (MOVING MESH)
    -----------

       IALE   =              0 (1: activated                )
       NALINF =              0 (Fluid initialization
                                                  iterations)
       IFLXMW =              0 (ALE mass flux computation
                                0: thanks to vertices
                                1: thanks to mesh velocity)


 -----------------------------------------------------------


Postprocessing output writers:
------------------------------

  -1: name: results
      directory: postprocessing
      format: EnSight Gold
      options: 
      time dependency: fixed mesh
      output: every 500000 time steps and at calculation end

  -5: name: 
      directory: monitoring
      format: time_plot
      options: 
      time dependency: fixed mesh
      output: every 1 time steps

  -6: name: 
      directory: profiles
      format: plot
      options: 
      time dependency: fixed mesh
      output: at calculation end


 Reading file:        mesh_input
 Finished reading:    mesh_input
 No "partition_input/domain_number_40" file available;

 ----------------------------------------------------------

 Ignoring periodicity for graph-based partitioning.

 Partitioning 957906 cells to 40 domains on 40 ranks
   (SCOTCH_dgraphPart).

  wall-clock time: 2.333517 s

  Number of cells per domain (histogramm):
    [      22978 ;      23185 [ =          1
    [      23185 ;      23393 [ =          1
    [      23393 ;      23601 [ =          3
    [      23601 ;      23809 [ =          6
    [      23809 ;      24017 [ =         12
    [      24017 ;      24225 [ =         11
    [      24225 ;      24433 [ =          3
    [      24433 ;      24641 [ =          1
    [      24641 ;      24849 [ =          1
    [      24849 ;      25057 ] =          1

 Writing file:        partition_output/domain_number_40
 Finished writing:    partition_output/domain_number_40

 Partitioning finished (2.77 s)

 Before insertion of user-defined boundary
   Number of cells:          957906
   Number of interior faces: 2890809
   Number of boundary faces: 13122
   Number of vertices:       988428

 After insertion of user-defined boundary
   Number of cells:          957906
   Number of interior faces: 2854035
   Number of boundary faces: 39366
   Number of vertices:       1001876


 ----------------------------------------------------------
 Composing periodicities

 Halo construction with standard neighborhood
 ============================================

 Face interfaces creation
 Definition of periodic vertices
 Vertex interfaces creation
 Halo creation
 Halo definition
    Local halo definition
    Distant halo creation
    Updating the faces -> cells connectivity

 Histogram of the number of cells per rank:

    minimum value =              22978
    maximum value =              25057

      1 : [      22978 ;      23393 [ =          2
      2 : [      23393 ;      23809 [ =          9
      3 : [      23809 ;      24225 [ =         23
      4 : [      24225 ;      24641 [ =          4
      5 : [      24641 ;      25057 ] =          2

 ----------------------------------------------------------

 Histogram of the number of standard + halo cells per rank:

    minimum value =              27825
    maximum value =              33063

      1 : [      27825 ;      28872 [ =          6
      2 : [      28872 ;      29920 [ =         17
      3 : [      29920 ;      30967 [ =          7
      4 : [      30967 ;      32015 [ =          5
      5 : [      32015 ;      33063 ] =          5

 ----------------------------------------------------------

 Histogram of the number of ghost cells per rank:

    minimum value =               4280
    maximum value =               8466

      1 : [       4280 ;       5117 [ =          7
      2 : [       5117 ;       5954 [ =         12
      3 : [       5954 ;       6791 [ =         10
      4 : [       6791 ;       7628 [ =          5
      5 : [       7628 ;       8466 ] =          6

 ----------------------------------------------------------

 Histogram of the number of interior faces per rank:

    minimum value =              71033
    maximum value =              78113

      1 : [      71033 ;      72449 [ =          4
      2 : [      72449 ;      73865 [ =          7
      3 : [      73865 ;      75281 [ =         20
      4 : [      75281 ;      76697 [ =          7
      5 : [      76697 ;      78113 ] =          2

 ----------------------------------------------------------

 Histogram of the number of boundary faces per rank:

    minimum value =                  0
    maximum value =               2606

      1 : [          0 ;        521 [ =         20
      2 : [        521 ;       1042 [ =          0
      3 : [       1042 ;       1563 [ =          1
      4 : [       1563 ;       2084 [ =         17
      5 : [       2084 ;       2606 ] =          2

 ----------------------------------------------------------

 Histogram of the number of interior faces per cell:

    minimum value =                  5
    maximum value =                  6

      1 : [          5 ;          6 ] =     957906

 ----------------------------------------------------------

 Histogram of the number of neighboring domains per rank:

    minimum value =                  7
    maximum value =                 20

      1 : [          7 ;          9 [ =          8
      2 : [          9 ;         12 [ =         17
      3 : [         12 ;         14 [ =          7
      4 : [         14 ;         17 [ =          7
      5 : [         17 ;         20 ] =          1

 ----------------------------------------------------------

 Global definition of the number of elements (cells, vertices, faces...)
Synchronizing cell families

 Writing file:        mesh_output
 Finished writing:    mesh_output

 Renumbering mesh:

   renumbering for cells:
     pre-numbering:                       none
     cells adjacent to ghost cells last:  no
     numbering:                           none

   renumbering for interior faces:
     cell adjacency pre-ordering:         lowest id first
     faces adjacent to ghost cells last:  no
     numbering:                           none

   renumbering for boundary faces:
     numbering:                           none

 ----------------------------------------------------------

 Histogram of volume mesh matrix bandwidth per rank:

    minimum value =              26699
    maximum value =              32710

      1 : [      26699 ;      27901 [ =          6
      2 : [      27901 ;      29103 [ =         13
      3 : [      29103 ;      30305 [ =         14
      4 : [      30305 ;      31507 [ =          2
      5 : [      31507 ;      32710 ] =          5

 Histogram of volume mesh matrix profile/lines per rank:

    minimum value =               3212
    maximum value =               7812

      1 : [       3212 ;       4132 [ =         11
      2 : [       4132 ;       5052 [ =         15
      3 : [       5052 ;       5972 [ =          7
      4 : [       5972 ;       6892 [ =          4
      5 : [       6892 ;       7812 ] =          3

 Mesh coordinates:               minimum    and maximum
                       X : -8.8817842e-16  6.2830000e+00
                       Y : -1.3750000e+00  1.3750000e+00
                       Z : -8.8817842e-16  3.1420000e+00
 Mesh
     Number of cells:          957906
     Number of interior faces: 2877687
     Number of boundary faces: 39366
     Number of vertices:       1001876

 Periodic faces (which are also interior faces):
     Periodicity  1:          11826 face couples
     Periodicity  2:          11826 face couples

 Groups:
    "0"
       cells:                957906
       interior faces:      2877687
       boundary faces:        39366
    "auto:internal_coupling_0"
       boundary faces:        26244

 --- Information on the volumes
       Minimum control volume      =  7.5198063e-06
       Maximum control volume      =  2.4221063e-04
       Total volume for the domain =  5.4288261e+01

  Criterion 1: Orthogonality:
    Number of bad cells detected: 0 -->   0 %

  Criterion 2: Offset:
    Number of bad cells detected: 0 -->   0 %

  Criterion 3: Least-Squares Gradient Quality:
    Number of bad cells detected: 0 -->   0 %

  Criterion 4: Cells Volume Ratio:
    Number of bad cells detected: 0 -->   0 %

  Criterion 5: Guilt by Association:
    Number of bad cells detected: 0 -->   0 %

 Computing geometric quantities (0.0599 s)

 Internal coupling
   coupling_id = 0
   Coupled scalar: 11
   Cell group selection criterion: -1.<y<1.
   Face group selection criterion: auto:internal_coupling_0
   Locator: n dist points (total coupled boundary faces) = 26244
                                                             
       ALMAX  =    0.37865E+01 (Characteristic length       )
       ALMAX is the cubic root of the domain volume.


 -----------------------------------------------------------


 ** VARIABLES INITIALIZATION
    ------------------------

 -----------------------------------------
  Variable          Min. value  Max. value
 -----------------------------------------                   
  Velocity          0.0000E+00  0.1598E+01
  Velocity          0.0000E+00  0.9984E-01
  Velocity          0.0000E+00  0.9983E-01
  Pressure          0.0000E+00  0.0000E+00
  diric             0.0000E+00  0.1598E+01
  neuma             0.0000E+00  0.1598E+01
  11               -0.3942E+00  0.1598E+01
  12               -0.3942E+00  0.1598E+01
 ---------------------------------

                dt  0.1000E-01  0.1000E-01
 ---------------------------------



-------------------------------------------------------------

 ------------------------------------------------------------- 



===============================================================



                       MAIN CALCULATION                      
                       ================                      


===============================================================




===============================================================


 INSTANT    0.100000000E-01   TIME STEP NUMBER               1
 ============================================================= 


 -----------------------------------------
 Property           Min. value  Max. value
 -----------------------------------------
  density           0.1000E+01  0.1000E+01
  molecular_viscos  0.1416E-03  0.1416E-03
  turbulent_viscos  0.0000E+00  0.1301E-02
 -----------------------------------------

 --- Diffusivity:
 -----------------------------------------------
 Scalar           Number  Min. value  Max. value
 -----------------------------------------------
 diric                 1  0.1416E-03  0.1416E-03
 neuma                 2  0.1416E-03  0.1416E-03
 11                    3  0.1416E-03  0.1416E-03
 12                    4  0.1267E-04  0.1416E-03
 -----------------------------------------------



   ** INFORMATION ON BOUNDARY FACES TYPE
      ----------------------------------

-------------------------------------------------------------------------
Boundary type          Code    Nb faces
-------------------------------------------------------------------------
Inlet                     2           0
Smooth wall               5       39366
Rough wall                6           0
Symmetry                  4           0
Free outlet               3           0
Free inlet               14           0
Convective inlet         16           0
Free surface             15           0
Undefined                 1           0
-------------------------------------------------------------------------



   ** BOUNDARY MASS FLOW INFORMATION
      ------------------------------

---------------------------------------------------------------
Boundary type          Code    Nb faces           Mass flow
---------------------------------------------------------------
Inlet                     2           0         0.000000000E+00
Smooth wall               5       39366         0.000000000E+00
Rough wall                6           0         0.000000000E+00
Symmetry                  4           0         0.000000000E+00
Free outlet               3           0         0.000000000E+00
Free inlet               14           0         0.000000000E+00
Convective inlet         16           0         0.000000000E+00
Free surface             15           0         0.000000000E+00
Undefined                 1           0         0.000000000E+00
---------------------------------------------------------------

 cedric output : friction bot wall =    8.6619170683032154E-003   2.8408501240174543E-004   2.8549569582520635E-004
 cedric output : friction top wall =    8.6604307239937679E-003   2.8311627458685025E-004   2.8635988279981483E-004

 INSTANT    0.200000000E-01   TIME STEP NUMBER               2
 ============================================================= 




   ** BOUNDARY MASS FLOW INFORMATION
      ------------------------------

---------------------------------------------------------------
Boundary type          Code    Nb faces           Mass flow
---------------------------------------------------------------
Inlet                     2           0         0.000000000E+00
Smooth wall               5       39366         0.000000000E+00
Rough wall                6           0         0.000000000E+00
Symmetry                  4           0         0.000000000E+00
Free outlet               3           0         0.000000000E+00
Free inlet               14           0         0.000000000E+00
Convective inlet         16           0         0.000000000E+00
Free surface             15           0         0.000000000E+00
Undefined                 1           0         0.000000000E+00
---------------------------------------------------------------

 cedric output : friction bot wall =    8.7448138199639706E-003   4.8406523194379839E-005   2.8064549863436616E-004
 cedric output : friction top wall =    8.7444417245971327E-003   4.7967403345612969E-005   2.8054228246423538E-004

 INSTANT    0.300000000E-01   TIME STEP NUMBER               3
 ============================================================= 


 cedric output : friction bot wall =    8.7705931650896053E-003   10.332223853613083        2.7909077523647274E-004
 cedric output : friction top wall =    8.7708803338645801E-003   10.437632046883373        2.7896849024489767E-004

 INSTANT    0.400000000E-01   TIME STEP NUMBER               4
 ============================================================= 


 cedric output : friction bot wall =    8.7921583412615221E-003   10.158994394418210        2.7883054343465913E-004
 cedric output : friction top wall =    8.7927098032848112E-003   10.267933648124094        2.7892586005755368E-004

 INSTANT    0.500000000E-01   TIME STEP NUMBER               5
 ============================================================= 


 cedric output : friction bot wall =    8.8109742411195957E-003   10.149782477815220        2.7899903266892989E-004
 cedric output : friction top wall =    8.8116430456285470E-003   10.258527212638032        2.7931560457031425E-004

 INSTANT    0.600000000E-01   TIME STEP NUMBER               6
 ============================================================= 


 cedric output : friction bot wall =    8.8278004832489480E-003   10.150235321144997        2.7925333061989770E-004
 cedric output : friction top wall =    8.8285164676744719E-003   10.258875349530960        2.7972861855829131E-004

 INSTANT    0.700000000E-01   TIME STEP NUMBER               7
 ============================================================= 


 cedric output : friction bot wall =    8.8431163770743941E-003   10.150680478052379        2.7947149907193828E-004
 cedric output : friction top wall =    8.8438357601037503E-003   10.259234111205711        2.8003528067468340E-004

 INSTANT    0.800000000E-01   TIME STEP NUMBER               8
 ============================================================= 


 cedric output : friction bot wall =    8.8572405388540488E-003   10.151039056622135        2.7962151784097287E-004
 cedric output : friction top wall =    8.8579345024287041E-003   10.259534477583344        2.8021360208742340E-004

 INSTANT    0.900000000E-01   TIME STEP NUMBER               9
 ============================================================= 


 cedric output : friction bot wall =    8.8703964858916594E-003   10.151355718173228        2.7970526691794466E-004
 cedric output : friction top wall =    8.8710454575644283E-003   10.259806891472302        2.8027867892132608E-004

 INSTANT    0.100000000E+00   TIME STEP NUMBER              10
 ============================================================= 


 cedric output : friction bot wall =    8.8827478832947532E-003   10.151694760200902        2.7973516238089067E-004
 cedric output : friction top wall =    8.8833386190608106E-003   10.260105145421420        2.8025490778335740E-004
 cedric output : bulk fluid temperature =    9.9999999999999992E-002   1.0338010970848750       -7.1202949377868279E-011  -7.9366822453554940E-009  -5.4488915476616555E-007
 cedric output : bulk solid temperature =    9.9999999999999992E-002 -0.89467270905533247      -0.89517663817983895     

 INSTANT    0.110000000E+00   TIME STEP NUMBER              11
 ============================================================= 


 cedric output : friction bot wall =    8.8944186568695287E-003   10.151993974424904        2.7972493987687963E-004
 cedric output : friction top wall =    8.8949425472358221E-003   10.260371081921820        2.8016584957556672E-004

 INSTANT    0.120000000E+00   TIME STEP NUMBER              12
 ============================================================= 


 cedric output : friction bot wall =    8.9055051821530992E-003   10.152289031967200        2.7968645989222908E-004
 cedric output : friction top wall =    8.9059571548043524E-003   10.260637727237331        2.8003117884629035E-004

 INSTANT    0.130000000E+00   TIME STEP NUMBER              13
 ============================================================= 


 cedric output : friction bot wall =    8.9160840004128411E-003   10.152580337362869        2.7962896784358476E-004
 cedric output : friction top wall =    8.9164617586333806E-003   10.260903626859395        2.7986631011367279E-004

 INSTANT    0.140000000E+00   TIME STEP NUMBER              14
 ============================================================= 


 cedric output : friction bot wall =    8.9262169975889150E-003   10.152868540425800        2.7955927715589445E-004
 cedric output : friction top wall =    8.9265203953402279E-003   10.261168529235050        2.7968291982121936E-004

 INSTANT    0.150000000E+00   TIME STEP NUMBER              15
 ============================================================= 


 cedric output : friction bot wall =    8.9359549587990621E-003   10.153153895905549        2.7948222602285777E-004
 cedric output : friction top wall =    8.9361854918175339E-003   10.261432407480875        2.7948966803682975E-004

 INSTANT    0.160000000E+00   TIME STEP NUMBER              16
 ============================================================= 


 cedric output : friction bot wall =    8.9453400927297470E-003   10.153436554955032        2.7940115258735413E-004
 cedric output : friction top wall =    8.9455004786375761E-003   10.261695128660383        2.7929287319069309E-004

 INSTANT    0.170000000E+00   TIME STEP NUMBER              17
 ============================================================= 


 cedric output : friction bot wall =    8.9544078696015602E-003   10.153716927086881        2.7931830075415387E-004
 cedric output : friction top wall =    8.9545017023567926E-003   10.261956886171664        2.7909707080053033E-004

 INSTANT    0.180000000E+00   TIME STEP NUMBER              18
 ============================================================= 


 cedric output : friction bot wall =    8.9631883880467618E-003   10.153995306963541        2.7923513804761025E-004
 cedric output : friction top wall =    8.9632198567513640E-003   10.262217866634934        2.7890545275651324E-004

 INSTANT    0.190000000E+00   TIME STEP NUMBER              19
 ============================================================= 


 cedric output : friction bot wall =    8.9717074104881701E-003   10.154272011291729        2.7915259293997968E-004
 cedric output : friction top wall =    8.9716810741191193E-003   10.262478642806602        2.7872020443014218E-004

 INSTANT    0.200000000E+00   TIME STEP NUMBER              20
 ============================================================= 


 cedric output : friction bot wall =    8.9799871600709496E-003   10.154547396535458        2.7907122672681699E-004
 cedric output : friction top wall =    8.9799077704119309E-003   10.262739498551392        2.7854276050099790E-004
 cedric output : bulk fluid temperature =   0.20000000000000004        1.0337715836568491       -4.2166875365365037E-011  -5.6005858996805903E-009  -5.2362534927670682E-007
 cedric output : bulk solid temperature =   0.20000000000000004      -0.89463248772128423      -0.89520639311665329     

 INSTANT    0.210000000E+00   TIME STEP NUMBER              21
 ============================================================= 


 cedric output : friction bot wall =    8.9880469427290610E-003   10.154821622532786        2.7899135532830950E-004
 cedric output : friction top wall =    8.9879193081777806E-003   10.263000450968081        2.7837399821762293E-004

 INSTANT    0.220000000E+00   TIME STEP NUMBER              22
 ============================================================= 


 cedric output : friction bot wall =    8.9959036388510983E-003   10.155095036829044        2.7891313414477736E-004
 cedric output : friction top wall =    8.9957325222647863E-003   10.263261537387597        2.7821438321194616E-004

 INSTANT    0.230000000E+00   TIME STEP NUMBER              23
 ============================================================= 


 cedric output : friction bot wall =    9.0035720961640590E-003   10.155367725978728        2.7883661629683331E-004
 cedric output : friction top wall =    9.0033621405817468E-003   10.263522681272917        2.7806407955203018E-004

 INSTANT    0.240000000E+00   TIME STEP NUMBER              24
 ============================================================= 


 cedric output : friction bot wall =    9.0110654467807673E-003   10.155640552024931        2.7876179202945600E-004
 cedric output : friction top wall =    9.0108211234913409E-003   10.263784418220069        2.7792303285506108E-004

 INSTANT    0.250000000E+00   TIME STEP NUMBER              25
 ============================================================= 


 cedric output : friction bot wall =    9.0183953653650735E-003   10.155911777283109        2.7868861497397742E-004
 cedric output : friction top wall =    9.0181209395161655E-003   10.264045237712995        2.7779103310355966E-004

 INSTANT    0.260000000E+00   TIME STEP NUMBER              26
 ============================================================= 


 cedric output : friction bot wall =    9.0255722809117096E-003   10.156183297024217        2.7861701934050895E-004
 cedric output : friction top wall =    9.0252717909044891E-003   10.264306892726193        2.7766776209890617E-004

 INSTANT    0.270000000E+00   TIME STEP NUMBER              27
 ============================================================= 


 cedric output : friction bot wall =    9.0326055516459450E-003   10.156453375601259        2.7854693093347485E-004
 cedric output : friction top wall =    9.0322827989852954E-003   10.264567845911465        2.7755282926487159E-004

 INSTANT    0.280000000E+00   TIME STEP NUMBER              28
 ============================================================= 


 cedric output : friction bot wall =    9.0395036106901208E-003   10.156723405475534        2.7847827400203208E-004
 cedric output : friction top wall =    9.0391621575128967E-003   10.264829448236583        2.7744579859267948E-004

 INSTANT    0.290000000E+00   TIME STEP NUMBER              29
 ============================================================= 


 cedric output : friction bot wall =    9.0462740835635640E-003   10.156992429925605        2.7841097511499351E-004
 cedric output : friction top wall =    9.0459172658311163E-003   10.265090772812140        2.7734620894888753E-004

 INSTANT    0.300000000E+00   TIME STEP NUMBER              30
 ============================================================= 


 cedric output : friction bot wall =    9.0529238968242130E-003   10.157277009559156        2.7834496581472993E-004
 cedric output : friction top wall =    9.0525548231226698E-003   10.265366627362694        2.7725358884916407E-004
 cedric output : bulk fluid temperature =   0.30000000000000010        1.0337421360994208       -2.5518881973023553E-011  -4.5538363538609430E-009  -5.2227051652604668E-007
 cedric output : bulk solid temperature =   0.30000000000000010      -0.89459234592586789      -0.89523578541881832     

 INSTANT    0.310000000E+00   TIME STEP NUMBER              31
 ============================================================= 


 cedric output : friction bot wall =    9.0594593730666546E-003   10.157515537092326        2.7828018379248796E-004
 cedric output : friction top wall =    9.0590809133471260E-003   10.265601153682287        2.7716746728666345E-004

 INSTANT    0.320000000E+00   TIME STEP NUMBER              32
 ============================================================= 


 cedric output : friction bot wall =    9.0658862904307962E-003   10.157813148444873        2.7821657269315735E-004
 cedric output : friction top wall =    9.0655011119827201E-003   10.265890291985968        2.7708738255174340E-004

 INSTANT    0.330000000E+00   TIME STEP NUMBER              33
 ============================================================= 


 cedric output : friction bot wall =    9.0722099378100010E-003   10.158064612129833        2.7815408206807040E-004
 cedric output : friction top wall =    9.0718205118692653E-003   10.266137493260317        2.7701288709134925E-004

 INSTANT    0.340000000E+00   TIME STEP NUMBER              34
 ============================================================= 


 cedric output : friction bot wall =    9.0784351963094177E-003   10.158333244367384        2.7809266755044588E-004
 cedric output : friction top wall =    9.0780438056587438E-003   10.266401825387874        2.7694355187283951E-004

 INSTANT    0.350000000E+00   TIME STEP NUMBER              35
 ============================================================= 


 cedric output : friction bot wall =    9.0845665572680690E-003   10.158599231990024        2.7803228968525354E-004
 cedric output : friction top wall =    9.0841753203630780E-003   10.266664159144495        2.7687896885966571E-004

 INSTANT    0.360000000E+00   TIME STEP NUMBER              36
 ============================================================= 


 cedric output : friction bot wall =    9.0906081783764456E-003   10.158865459717024        2.7797291379602824E-004
 cedric output : friction top wall =    9.0902190579039074E-003   10.266927259976702        2.7681875239770319E-004

 INSTANT    0.370000000E+00   TIME STEP NUMBER              37
 ============================================================= 


 cedric output : friction bot wall =    9.0965639157490757E-003   10.159131309709711        2.7791450935704399E-004
 cedric output : friction top wall =    9.0961787293812272E-003   10.267190448294436        2.7676253997715354E-004

 INSTANT    0.380000000E+00   TIME STEP NUMBER              38
 ============================================================= 


 cedric output : friction bot wall =    9.1024373539553873E-003   10.159396760953733        2.7785704943980095E-004
 cedric output : friction top wall =    9.1020577852228227E-003   10.267453625749175        2.7670999238475454E-004

 INSTANT    0.390000000E+00   TIME STEP NUMBER              39
 ============================================================= 


 cedric output : friction bot wall =    9.1082318323952201E-003   10.159661948469607        2.7780051020550087E-004
 cedric output : friction top wall =    9.1078594411407379E-003   10.267716902162972        2.7666079342283429E-004

 INSTANT    0.400000000E+00   TIME STEP NUMBER              40
 ============================================================= 


 cedric output : friction bot wall =    9.1139504685536551E-003   10.159926798495251        2.7774487044622737E-004
 cedric output : friction top wall =    9.1135867008000637E-003   10.267980450879215        2.7661464931399418E-004
 cedric output : bulk fluid temperature =   0.40000000000000019        1.0337127417990726        6.9183322509453266E-012  -3.9157602089743875E-009  -5.2264211458722419E-007
 cedric output : bulk solid temperature =   0.40000000000000019      -0.89455227040803831      -0.89526518031777425     

 INSTANT    0.410000000E+00   TIME STEP NUMBER              41
 ============================================================= 


 cedric output : friction bot wall =    9.1195961784884330E-003   10.160191505736499        2.7769011117481396E-004
 cedric output : friction top wall =    9.1192423756627332E-003   10.268244475596683        2.7657128788837815E-004

 INSTANT    0.420000000E+00   TIME STEP NUMBER              42
 ============================================================= 


 cedric output : friction bot wall =    9.1251716949233494E-003   10.160456000410914        2.7763621526249137E-004
 cedric output : friction top wall =    9.1248291024603589E-003   10.268508762148574        2.7653045761973950E-004

 INSTANT    0.430000000E+00   TIME STEP NUMBER              43
 ============================================================= 


 cedric output : friction bot wall =    9.1306795832788359E-003   10.160720272107671        2.7758316712073579E-004
 cedric output : friction top wall =    9.1303493585765550E-003   10.268773036413231        2.7649192656976755E-004

 INSTANT    0.440000000E+00   TIME STEP NUMBER              44
 ============================================================= 


 cedric output : friction bot wall =    9.1361222559319735E-003   10.160984494524380        2.7753095242415789E-004
 cedric output : friction top wall =    9.1358054756754768E-003   10.269037428503600        2.7645548127846353E-004

 INSTANT    0.450000000E+00   TIME STEP NUMBER              45
 ============================================================= 


 cedric output : friction bot wall =    9.1415019849260138E-003   10.161248776515826        2.7747955787222185E-004
 cedric output : friction top wall =    9.1411996518444734E-003   10.269302162121775        2.7642092563561214E-004

 INSTANT    0.460000000E+00   TIME STEP NUMBER              46
 ============================================================= 


 cedric output : friction bot wall =    9.1468209133515766E-003   10.161511959889930        2.7742897098569514E-004
 cedric output : friction top wall =    9.1465339623754711E-003   10.269566503219295        2.7638807975675851E-004

 INSTANT    0.470000000E+00   TIME STEP NUMBER              47
 ============================================================= 


 cedric output : friction bot wall =    9.1520810654963335E-003   10.161774893687127        2.7737917993019316E-004
 cedric output : friction top wall =    9.1518103695597992E-003   10.269831269968689        2.7635677888121555E-004

 INSTANT    0.480000000E+00   TIME STEP NUMBER              48
 ============================================================= 


 cedric output : friction bot wall =    9.1572843559021185E-003   10.162037270493261        2.7733017336937046E-004
 cedric output : friction top wall =    9.1570307313727176E-003   10.270096076288187        2.7632687230447060E-004

 INSTANT    0.490000000E+00   TIME STEP NUMBER              49
 ============================================================= 


 cedric output : friction bot wall =    9.1624325976960713E-003   10.162299242636390        2.7728194034331812E-004
 cedric output : friction top wall =    9.1621968092208995E-003   10.270360979168242        2.7629822234771935E-004

 INSTANT    0.500000000E+00   TIME STEP NUMBER              50
 ============================================================= 


 cedric output : friction bot wall =    9.1675275100092934E-003   10.162560953242455        2.7723447016478564E-004
 cedric output : friction top wall =    9.1673102750332754E-003   10.270626073338521        2.7627070337815152E-004
 cedric output : bulk fluid temperature =   0.50000000000000022        1.0336833927660523        6.2759220719208595E-012  -3.4956013722207280E-009  -5.2313314309613418E-007
 cedric output : bulk solid temperature =   0.50000000000000022      -0.89451225243553301      -0.89529460621956580     

 INSTANT    0.510000000E+00   TIME STEP NUMBER              51
 ============================================================= 


 cedric output : friction bot wall =    9.1725707247024245E-003   10.162822561427880        2.7718775233408037E-004
 cedric output : friction top wall =    9.1723727176830847E-003   10.270891392635654        2.7624420088313622E-004

 INSTANT    0.520000000E+00   TIME STEP NUMBER              52
 ============================================================= 


 cedric output : friction bot wall =    9.1775637924794116E-003   10.163084143227781        2.7714177646949369E-004
 cedric output : friction top wall =    9.1773856487958883E-003   10.271156929232696        2.7621861059669842E-004

 INSTANT    0.530000000E+00   TIME STEP NUMBER              53
 ============================================================= 


 cedric output : friction bot wall =    9.1825081884575905E-003   10.163345754540824        2.7709653225191903E-004
 cedric output : friction top wall =    9.1823505080239291E-003   10.271422707364858        2.7619383768020004E-004

 INSTANT    0.540000000E+00   TIME STEP NUMBER              54
 ============================================================= 


 cedric output : friction bot wall =    9.1874053172435848E-003   10.163607335035211        2.7705200938108588E-004
 cedric output : friction top wall =    9.1872686678622431E-003   10.271688566927974        2.7616979595844661E-004

 INSTANT    0.550000000E+00   TIME STEP NUMBER              55
 ============================================================= 


 cedric output : friction bot wall =    9.1922565175666590E-003   10.163868978622521        2.7700819754069900E-004
 cedric output : friction top wall =    9.1921414380305051E-003   10.271954580871530        2.7614640720769157E-004

 INSTANT    0.560000000E+00   TIME STEP NUMBER              56
 ============================================================= 


 cedric output : friction bot wall =    9.1970630665139906E-003   10.164130608712592        2.7696508637173388E-004
 cedric output : friction top wall =    9.1969700695076779E-003   10.272220711793619        2.7612360049575037E-004

 INSTANT    0.570000000E+00   TIME STEP NUMBER              57
 ============================================================= 


 cedric output : friction bot wall =    9.2018261834190696E-003   10.164392113782000        2.7692266545303944E-004
 cedric output : friction top wall =    9.2017557582259584E-003   10.272486770605797        2.7610131156965924E-004

 INSTANT    0.580000000E+00   TIME STEP NUMBER              58
 ============================================================= 


 cedric output : friction bot wall =    9.2065470334414517E-003   10.164653330822500        2.7688092428756718E-004
 cedric output : friction top wall =    9.2064996484562470E-003   10.272752638964961        2.7607948228839632E-004

 INSTANT    0.590000000E+00   TIME STEP NUMBER              59
 ============================================================= 


 cedric output : friction bot wall =    9.2112267308613518E-003   10.164914201907758        2.7683985229363901E-004
 cedric output : friction top wall =    9.2112028359251398E-003   10.273018422160940        2.7605806010011784E-004

 INSTANT    0.600000000E+00   TIME STEP NUMBER              60
 ============================================================= 


 cedric output : friction bot wall =    9.2158663421138091E-003   10.165174812990188        2.7679943880048715E-004
 cedric output : friction top wall =    9.2158663706958452E-003   10.273284220821711        2.7603699756139418E-004
 cedric output : bulk fluid temperature =   0.60000000000000031        1.0336540838390751        1.5859640398125796E-011  -3.1800113142359033E-009  -5.2359405092992832E-007
 cedric output : bulk solid temperature =   0.60000000000000031      -0.89447228605315299      -0.89532406230998196     

 INSTANT    0.610000000E+00   TIME STEP NUMBER              61
 ============================================================= 


 cedric output : friction bot wall =    9.2204668885855334E-003   10.165435189840746        2.7675967304742618E-004
 cedric output : friction top wall =    9.2204912598448947E-003   10.273550065959421        2.7601625189523028E-004

 INSTANT    0.620000000E+00   TIME STEP NUMBER              62
 ============================================================= 


 cedric output : friction bot wall =    9.2250293492106700E-003   10.165695353105008        2.7672054418627573E-004
 cedric output : friction top wall =    9.2250784699019865E-003   10.273815922416405        2.7599578458536398E-004

 INSTANT    0.630000000E+00   TIME STEP NUMBER              63
 ============================================================= 


 cedric output : friction bot wall =    9.2295546628845138E-003   10.165955472325905        2.7668204128548159E-004
 cedric output : friction top wall =    9.2296289291454725E-003   10.274081926346414        2.7597556100390904E-004

 INSTANT    0.640000000E+00   TIME STEP NUMBER              64
 ============================================================= 


 cedric output : friction bot wall =    9.2340437306852336E-003   10.166215531170650        2.7664415333641956E-004
 cedric output : friction top wall =    9.2341435297074222E-003   10.274347976457761        2.7595555007264459E-004

 INSTANT    0.650000000E+00   TIME STEP NUMBER              65
 ============================================================= 


 cedric output : friction bot wall =    9.2384974179491423E-003   10.166475676795478        2.7660686926204661E-004
 cedric output : friction top wall =    9.2386231295181580E-003   10.274614007417869        2.7593572394865368E-004

 INSTANT    0.660000000E+00   TIME STEP NUMBER              66
 ============================================================= 


 cedric output : friction bot wall =    9.2429165562006432E-003   10.166736001078281        2.7657017792710124E-004
 cedric output : friction top wall =    9.2430685541295445E-003   10.274880118327314        2.7591605773768407E-004

 INSTANT    0.670000000E+00   TIME STEP NUMBER              67
 ============================================================= 


 cedric output : friction bot wall =    9.2473019449583801E-003   10.166996426375313        2.7653406814965968E-004
 cedric output : friction top wall =    9.2474805984217069E-003   10.275146250207456        2.7589652923493596E-004

 INSTANT    0.680000000E+00   TIME STEP NUMBER              68
 ============================================================= 


 cedric output : friction bot wall =    9.2516543534196735E-003   10.167256832414665        2.7649852871374409E-004
 cedric output : friction top wall =    9.2518600281830711E-003   10.275412281905020        2.7587711868481231E-004

 INSTANT    0.690000000E+00   TIME STEP NUMBER              69
 ============================================================= 


 cedric output : friction bot wall =    9.2559745220217385E-003   10.167517275388690        2.7646354838223568E-004
 cedric output : friction top wall =    9.2562075815885558E-003   10.275678167425539        2.7585780856210433E-004

 INSTANT    0.700000000E+00   TIME STEP NUMBER              70
 ============================================================= 


 cedric output : friction bot wall =    9.2602631638969788E-003   10.167777875651268        2.7642911590997722E-004
 cedric output : friction top wall =    9.2605239705970850E-003   10.275944021752057        2.7583858337267280E-004
 cedric output : bulk fluid temperature =   0.70000000000000040        1.0336248112723923        1.3468166696683277E-011  -2.9299946371070273E-009  -5.2403740565945373E-007
 cedric output : bulk solid temperature =   0.70000000000000040      -0.89443236677747084      -0.89535354626643449     

 INSTANT    0.710000000E+00   TIME STEP NUMBER              71
 ============================================================= 


 cedric output : friction bot wall =    9.2645209662472108E-003   10.168038727931528        2.7639522005747504E-004
 cedric output : friction top wall =    9.2648098822159623E-003   10.276209863871745        2.7581942947107389E-004

 INSTANT    0.720000000E+00   TIME STEP NUMBER              72
 ============================================================= 


 cedric output : friction bot wall =    9.2687485916397826E-003   10.168299807970332        2.7636184960484246E-004
 cedric output : friction top wall =    9.2690659797184122E-003   10.276475595588366        2.7580033489074348E-004

 INSTANT    0.730000000E+00   TIME STEP NUMBER              73
 ============================================================= 


 cedric output : friction bot wall =    9.2729466792044364E-003   10.168560899720894        2.7632899336598078E-004
 cedric output : friction top wall =    9.2732929037819944E-003   10.276741000538909        2.7578128919447713E-004

 INSTANT    0.740000000E+00   TIME STEP NUMBER              74
 ============================================================= 


 cedric output : friction bot wall =    9.2771158457727182E-003   10.168822009222943        2.7629664020250059E-004
 cedric output : friction top wall =    9.2774912735456832E-003   10.277005915932349        2.7576228333509246E-004

 INSTANT    0.750000000E+00   TIME STEP NUMBER              75
 ============================================================= 


 cedric output : friction bot wall =    9.2812566869394392E-003   10.169083313260273        2.7626477903711501E-004
 cedric output : friction top wall =    9.2816616876090809E-003   10.277270384318097        2.7574330952592508E-004

 INSTANT    0.760000000E+00   TIME STEP NUMBER              76
 ============================================================= 


 cedric output : friction bot wall =    9.2853697780584804E-003   10.169344835333041        2.7623339886615465E-004
 cedric output : friction top wall =    9.2858047249774669E-003   10.277534638768955        2.7572436112498075E-004

 INSTANT    0.770000000E+00   TIME STEP NUMBER              77
 ============================================================= 


 cedric output : friction bot wall =    9.2894556751808993E-003   10.169606455188713        2.7620248877092230E-004
 cedric output : friction top wall =    9.2899209459591427E-003   10.277798811915222        2.7570543252568351E-004

 INSTANT    0.780000000E+00   TIME STEP NUMBER              78
 ============================================================= 


 cedric output : friction bot wall =    9.2935149159437541E-003   10.169868218681160        2.7617203792829146E-004
 cedric output : friction top wall =    9.2940108929899373E-003   10.278063006745542        2.7568651905942736E-004

 INSTANT    0.790000000E+00   TIME STEP NUMBER              79
 ============================================================= 


 cedric output : friction bot wall =    9.2975480204004913E-003   10.170130011166933        2.7614203562117804E-004
 cedric output : friction top wall =    9.2980750914318476E-003   10.278327051981666        2.7566761690961286E-004

 INSTANT    0.800000000E+00   TIME STEP NUMBER              80
 ============================================================= 


 cedric output : friction bot wall =    9.3015554918126544E-003   10.170391864251204        2.7611247124813558E-004
 cedric output : friction top wall =    9.3021140503200123E-003   10.278590862804961        2.7564872303002672E-004
 cedric output : bulk fluid temperature =   0.80000000000000049        1.0335955721350780        2.8880233146995585E-011  -2.7307003470403600E-009  -5.2445315338509275E-007
 cedric output : bulk solid temperature =   0.80000000000000049      -0.89439249107696750      -0.89538305616511071     

 INSTANT    0.810000000E+00   TIME STEP NUMBER              81
 ============================================================= 


 cedric output : friction bot wall =    9.3055378173904045E-003   10.170653900790604        2.7608333433150518E-004
 cedric output : friction top wall =    9.3061282630540077E-003   10.278854474237793        2.7562983507001617E-004

 INSTANT    0.820000000E+00   TIME STEP NUMBER              82
 ============================================================= 


 cedric output : friction bot wall =    9.3094954689972101E-003   10.170916131646834        2.7605461452470312E-004
 cedric output : friction top wall =    9.3101182080749575E-003   10.279117780558654        2.7561095130250999E-004

 INSTANT    0.830000000E+00   TIME STEP NUMBER              83
 ============================================================= 


 cedric output : friction bot wall =    9.3134289038201406E-003   10.171178527780754        2.7602630161912265E-004
 cedric output : friction top wall =    9.3140843495037821E-003   10.279380797593408        2.7559207056480542E-004

 INSTANT    0.840000000E+00   TIME STEP NUMBER              84
 ============================================================= 


 cedric output : friction bot wall =    9.3173385649932914E-003   10.171441060553747        2.7599838554995818E-004
 cedric output : friction top wall =    9.3180271377447631E-003   10.279643682048057        2.7557319219859914E-004

 INSTANT    0.850000000E+00   TIME STEP NUMBER              85
 ============================================================= 


 cedric output : friction bot wall =    9.3212248821908667E-003   10.171703717556904        2.7597085640114743E-004
 cedric output : friction top wall =    9.3219470100414405E-003   10.279906518592600        2.7555431599675265E-004

 INSTANT    0.860000000E+00   TIME STEP NUMBER              86
 ============================================================= 


 cedric output : friction bot wall =    9.3250882721864405E-003   10.171966464284633        2.7594370440930401E-004
 cedric output : friction top wall =    9.3258443910142121E-003   10.280169531844393        2.7553544215628970E-004

 INSTANT    0.870000000E+00   TIME STEP NUMBER              87
 ============================================================= 


 cedric output : friction bot wall =    9.3289291393818755E-003   10.172229079654839        2.7591691996686242E-004
 cedric output : friction top wall =    9.3297196931842498E-003   10.280432632671559        2.7551657123232371E-004

 INSTANT    0.880000000E+00   TIME STEP NUMBER              88
 ============================================================= 


 cedric output : friction bot wall =    9.3327478763134096E-003   10.172491489607802        2.7589049362452699E-004
 cedric output : friction top wall =    9.3335733174337854E-003   10.280695606303638        2.7549770409677186E-004

 INSTANT    0.890000000E+00   TIME STEP NUMBER              89
 ============================================================= 


 cedric output : friction bot wall =    9.3365448641291784E-003   10.172753820387841        2.7586441609348255E-004
 cedric output : friction top wall =    9.3374056534554894E-003   10.280958507431151        2.7547884189741963E-004

 INSTANT    0.900000000E+00   TIME STEP NUMBER              90
 ============================================================= 


 cedric output : friction bot wall =    9.3403204730489603E-003   10.173016220661477        2.7583867824723673E-004
 cedric output : friction top wall =    9.3412170801989557E-003   10.281221463704014        2.7545998602353808E-004
 cedric output : bulk fluid temperature =   0.90000000000000058        1.0335663641320321        4.4217335222904957E-011  -2.5592918913916235E-009  -5.2484404275451718E-007
 cedric output : bulk solid temperature =   0.90000000000000058      -0.89435265602970437      -0.89541259052339406     

 INSTANT    0.910000000E+00   TIME STEP NUMBER              91
 ============================================================= 


 cedric output : friction bot wall =    9.3440750628032837E-003   10.173278648827893        2.7581327112359186E-004
 cedric output : friction top wall =    9.3450079662906315E-003   10.281484446683159        2.7544113807223590E-004

 INSTANT    0.920000000E+00   TIME STEP NUMBER              92
 ============================================================= 


 cedric output : friction bot wall =    9.3478089830468843E-003   10.173540896167696        2.7578818592613187E-004
 cedric output : friction top wall =    9.3487786704313861E-003   10.281747336429927        2.7542229981843591E-004

 INSTANT    0.930000000E+00   TIME STEP NUMBER              93
 ============================================================= 


 cedric output : friction bot wall =    9.3515225737481836E-003   10.173802721741440        2.7576341402475783E-004
 cedric output : friction top wall =    9.3525295417514354E-003   10.282010092682480        2.7540347318573828E-004

 INSTANT    0.940000000E+00   TIME STEP NUMBER              94
 ============================================================= 


 cedric output : friction bot wall =    9.3552161655510793E-003   10.174064251657033        2.7573894695541408E-004
 cedric output : friction top wall =    9.3562609201691353E-003   10.282272905204069        2.7538466022177232E-004

 INSTANT    0.950000000E+00   TIME STEP NUMBER              95
 ============================================================= 


 cedric output : friction bot wall =    9.3588900801291688E-003   10.174325726972263        2.7571477642034147E-004
 cedric output : friction top wall =    9.3599731367425935E-003   10.282536034623382        2.7536586307640143E-004

 INSTANT    0.960000000E+00   TIME STEP NUMBER              96
 ============================================================= 


 cedric output : friction bot wall =    9.3625446305278925E-003   10.174587186687203        2.7569089428853367E-004
 cedric output : friction top wall =    9.3636665139948602E-003   10.282799701097398        2.7534708397987053E-004

 INSTANT    0.970000000E+00   TIME STEP NUMBER              97
 ============================================================= 


 cedric output : friction bot wall =    9.3661801214891087E-003   10.174848474939528        2.7566729259562140E-004
 cedric output : friction top wall =    9.3673413662173945E-003   10.283063870157624        2.7532832522082849E-004

 INSTANT    0.980000000E+00   TIME STEP NUMBER              98
 ============================================================= 


 cedric output : friction bot wall =    9.3697968497559354E-003   10.175109502191422        2.7564396354346870E-004
 cedric output : friction top wall =    9.3709979997564780E-003   10.283328379106251        2.7530958912490191E-004

 INSTANT    0.990000000E+00   TIME STEP NUMBER              99
 ============================================================= 


 cedric output : friction bot wall =    9.3733951043624367E-003   10.175370142316758        2.7562089950004744E-004
 cedric output : friction top wall =    9.3746367132905382E-003   10.283593044925910        2.7529087803433066E-004

 INSTANT    0.100000000E+01   TIME STEP NUMBER             100
 ============================================================= 


 cedric output : friction bot wall =    9.3769751669105124E-003   10.175630356720820        2.7559809299937659E-004
 cedric output : friction top wall =    9.3782577981015164E-003   10.283857802890246        2.7527219428950269E-004
 cedric output : bulk fluid temperature =    1.0000000000000007        1.0335371853142652        4.6850146308422892E-011  -2.4155571410361843E-009  -5.2521206637613896E-007
 cedric output : bulk solid temperature =    1.0000000000000007      -0.89431285916310232      -0.89544214801486977     

 INSTANT    0.101000000E+01   TIME STEP NUMBER             101
 ============================================================= 


 cedric output : friction bot wall =    9.3805373118344519E-003   10.175890214160908        2.7557553674091958E-004
 cedric output : friction top wall =    9.3818615383330986E-003   10.284122779270092        2.7525354021222211E-004

 INSTANT    0.102000000E+01   TIME STEP NUMBER             102
 ============================================================= 


 cedric output : friction bot wall =    9.3840818066522804E-003   10.176149652626945        2.7555322358908073E-004
 cedric output : friction top wall =    9.3854482112327095E-003   10.284388099728304        2.7523491809069539E-004

 INSTANT    0.103000000E+01   TIME STEP NUMBER             103
 ============================================================= 


 cedric output : friction bot wall =    9.3876089122071453E-003   10.176408555804578        2.7553114657300458E-004
 cedric output : friction top wall =    9.3890180873922990E-003   10.284653817370970        2.7521633016639309E-004

 INSTANT    0.104000000E+01   TIME STEP NUMBER             104
 ============================================================= 


 cedric output : friction bot wall =    9.3911188828999063E-003   10.176667070952055        2.7550929888594145E-004
 cedric output : friction top wall =    9.3925714309951499E-003   10.284920010611483        2.7519777862095105E-004

 INSTANT    0.105000000E+01   TIME STEP NUMBER             105
 ============================================================= 


 cedric output : friction bot wall =    9.3946119669033133E-003   10.176925373075608        2.7548767388454857E-004
 cedric output : friction top wall =    9.3961085000427783E-003   10.285186603852923        2.7517926556309676E-004

 INSTANT    0.106000000E+01   TIME STEP NUMBER             106
 ============================================================= 


 cedric output : friction bot wall =    9.3980884063750610E-003   10.177183445814906        2.7546626508892518E-004
 cedric output : friction top wall =    9.3996295465508632E-003   10.285453483111169        2.7516079301706775E-004

 INSTANT    0.107000000E+01   TIME STEP NUMBER             107
 ============================================================= 


 cedric output : friction bot wall =    9.4015484376671447E-003   10.177441150245720        2.7544506618237439E-004
 cedric output : friction top wall =    9.4031348167361306E-003   10.285720509582049        2.7514236291208063E-004

 INSTANT    0.108000000E+01   TIME STEP NUMBER             108
 ============================================================= 


 cedric output : friction bot wall =    9.4049922915164820E-003   10.177698463162805        2.7542407101027678E-004
 cedric output : friction top wall =    9.4066245512185141E-003   10.285987701959074        2.7512397707217583E-004

 INSTANT    0.109000000E+01   TIME STEP NUMBER             109
 ============================================================= 


 cedric output : friction bot wall =    9.4084201932204022E-003   10.177955258149778        2.7540327357868718E-004
 cedric output : friction top wall =    9.4100989852185304E-003   10.286254982481834        2.7510563720651573E-004

 INSTANT    0.110000000E+01   TIME STEP NUMBER             110
 ============================================================= 


 cedric output : friction bot wall =    9.4118323628140516E-003   10.178211632250999        2.7538266805385774E-004
 cedric output : friction top wall =    9.4135583487432208E-003   10.286522513927370        2.7508734490203491E-004
 cedric output : bulk fluid temperature =    1.1000000000000008        1.0335080340472300        5.9472238490050154E-011  -2.2963006944840381E-009  -5.2557057854402109E-007
 cedric output : bulk solid temperature =    1.1000000000000008      -0.89427309826810109      -0.89547172743872450     

 INSTANT    0.111000000E+01   TIME STEP NUMBER             111
 ============================================================= 


 cedric output : friction bot wall =    9.4152290152460794E-003   10.178467663428655        2.7536224876083097E-004
 cedric output : friction top wall =    9.4170028667451278E-003   10.286790426599456        2.7506910161497779E-004

 INSTANT    0.112000000E+01   TIME STEP NUMBER             112
 ============================================================= 


 cedric output : friction bot wall =    9.4186103605403675E-003   10.178723549860724        2.7534201018192939E-004
 cedric output : friction top wall =    9.4204327592878681E-003   10.287058806098901        2.7505090866714439E-004

 INSTANT    0.113000000E+01   TIME STEP NUMBER             113
 ============================================================= 


 cedric output : friction bot wall =    9.4219766039531829E-003   10.178979364126771        2.7532194695496759E-004
 cedric output : friction top wall =    9.4238482417006077E-003   10.287327576571407        2.7503276724526415E-004

 INSTANT    0.114000000E+01   TIME STEP NUMBER             114
 ============================================================= 


 cedric output : friction bot wall =    9.4253279461256889E-003   10.179235123680245        2.7530205387052474E-004
 cedric output : friction top wall =    9.4272495247222990E-003   10.287596701891813        2.7501467839853203E-004

 INSTANT    0.115000000E+01   TIME STEP NUMBER             115
 ============================================================= 


 cedric output : friction bot wall =    9.4286645832300092E-003   10.179490807853780        2.7528232586937739E-004
 cedric output : friction top wall =    9.4306368146346523E-003   10.287866023088986        2.7499664304079147E-004

 INSTANT    0.116000000E+01   TIME STEP NUMBER             116
 ============================================================= 


 cedric output : friction bot wall =    9.4319867071086493E-003   10.179746300022313        2.7526275803985774E-004
 cedric output : friction top wall =    9.4340103133805919E-003   10.288135346485626        2.7497866195419680E-004

 INSTANT    0.117000000E+01   TIME STEP NUMBER             117
 ============================================================= 


 cedric output : friction bot wall =    9.4352945053992384E-003   10.180001618278599        2.7524334561463586E-004
 cedric output : friction top wall =    9.4373702187061041E-003   10.288404628402464        2.7496073579390441E-004

 INSTANT    0.118000000E+01   TIME STEP NUMBER             118
 ============================================================= 


 cedric output : friction bot wall =    9.4385881616515978E-003   10.180256698818486        2.7522408396772071E-004
 cedric output : friction top wall =    9.4407167242672660E-003   10.288673792019665        2.7494286509867767E-004

 INSTANT    0.119000000E+01   TIME STEP NUMBER             119
 ============================================================= 


 cedric output : friction bot wall =    9.4418678554637619E-003   10.180511538231915        2.7520496861191727E-004
 cedric output : friction top wall =    9.4440500197286725E-003   10.288942837834464        2.7492505029907033E-004

 INSTANT    0.120000000E+01   TIME STEP NUMBER             120
 ============================================================= 


 cedric output : friction bot wall =    9.4451337626048470E-003   10.180766406845699        2.7518599519618420E-004
 cedric output : friction top wall =    9.4473702908873004E-003   10.289211954576267        2.7490729173091293E-004
 cedric output : bulk fluid temperature =    1.2000000000000008        1.0334789088353831        6.9016211363926229E-011  -2.1817358992412598E-009  -5.2590982250456055E-007
 cedric output : bulk solid temperature =    1.2000000000000008      -0.89423337151296145      -0.89550132769235180     

 INSTANT    0.121000000E+01   TIME STEP NUMBER             121
 ============================================================= 


 cedric output : friction bot wall =    9.4483860551255877E-003   10.181021396954076        2.7516715950308976E-004
 cedric output : friction top wall =    9.4506777197613089E-003   10.289481294344863        2.7488958965171011E-004

 INSTANT    0.122000000E+01   TIME STEP NUMBER             122
 ============================================================= 


 cedric output : friction bot wall =    9.4516249014705567E-003   10.181276326623781        2.7514845744594686E-004
 cedric output : friction top wall =    9.4539724846834719E-003   10.289750751459421        2.7487194425450162E-004

 INSTANT    0.123000000E+01   TIME STEP NUMBER             123
 ============================================================= 


 cedric output : friction bot wall =    9.4548504665830802E-003   10.181530642778629        2.7512988506627086E-004
 cedric output : friction top wall =    9.4572547604064357E-003   10.290019801580637        2.7485435568121868E-004

 INSTANT    0.124000000E+01   TIME STEP NUMBER             124
 ============================================================= 


 cedric output : friction bot wall =    9.4580629119786971E-003   10.181785365195630        2.7511143853023142E-004
 cedric output : friction top wall =    9.4605247182427167E-003   10.290289637855627        2.7483682403936927E-004

 INSTANT    0.125000000E+01   TIME STEP NUMBER             125
 ============================================================= 


 cedric output : friction bot wall =    9.4612623958594700E-003   10.182039587439640        2.7509311412876776E-004
 cedric output : friction top wall =    9.4637825260756609E-003   10.290559269495724        2.7481934941593725E-004

 INSTANT    0.126000000E+01   TIME STEP NUMBER             126
 ============================================================= 


 cedric output : friction bot wall =    9.4644490732996821E-003   10.182293634185552        2.7507490827635228E-004
 cedric output : friction top wall =    9.4670283484640499E-003   10.290829060808891        2.7480193189412494E-004

 INSTANT    0.127000000E+01   TIME STEP NUMBER             127
 ============================================================= 


 cedric output : friction bot wall =    9.4676230962285855E-003   10.182547466155821        2.7505681750694585E-004
 cedric output : friction top wall =    9.4702623467552809E-003   10.291098979452871        2.7478457156934110E-004

 INSTANT    0.128000000E+01   TIME STEP NUMBER             128
 ============================================================= 


 cedric output : friction bot wall =    9.4707846135421211E-003   10.182801088877980        2.7503883847237000E-004
 cedric output : friction top wall =    9.4734846791644563E-003   10.291369053048788        2.7476726856357327E-004

 INSTANT    0.129000000E+01   TIME STEP NUMBER             129
 ============================================================= 


 cedric output : friction bot wall =    9.4739337711952625E-003   10.183054558266850        2.7502096794097282E-004
 cedric output : friction top wall =    9.4766955008600516E-003   10.291639351336645        2.7475002304061806E-004

[...]

 INSTANT    0.449999300E+05   TIME STEP NUMBER         4499993
 ============================================================= 


 cedric output : friction bot wall =    6.2032576380811444E-002 -0.48732950042082962       -5.4241771628980883E-004
 cedric output : friction top wall =    6.2848290218683864E-002  0.48733382609874593        8.6452338830006998E-005

 INSTANT    0.449999400E+05   TIME STEP NUMBER         4499994
 ============================================================= 


 cedric output : friction bot wall =    6.2023854550030053E-002 -0.48730705294022081       -5.4364692946794798E-004
 cedric output : friction top wall =    6.2850727479657670E-002  0.48731151092725655        8.6868142343176060E-005

 INSTANT    0.449999500E+05   TIME STEP NUMBER         4499995
 ============================================================= 


 cedric output : friction bot wall =    6.2015084274780238E-002 -0.48728569287068180       -5.4486098762477969E-004
 cedric output : friction top wall =    6.2853205220543273E-002  0.48728994261418995        8.7303464121116784E-005

 INSTANT    0.449999600E+05   TIME STEP NUMBER         4499996
 ============================================================= 


 cedric output : friction bot wall =    6.2006267071473685E-002 -0.48726562118353806       -5.4605993245942792E-004
 cedric output : friction top wall =    6.2855723352305687E-002  0.48726941505045385        8.7757923731311758E-005

 INSTANT    0.449999700E+05   TIME STEP NUMBER         4499997
 ============================================================= 


 cedric output : friction bot wall =    6.1997404502259906E-002 -0.48724616932654835       -5.4724338009149495E-004
 cedric output : friction top wall =    6.2858281907616276E-002  0.48725005907867669        8.8231344885199260E-005

 INSTANT    0.449999800E+05   TIME STEP NUMBER         4499998
 ============================================================= 


 cedric output : friction bot wall =    6.1988498103472428E-002 -0.48722819518136479       -5.4841083748879711E-004
 cedric output : friction top wall =    6.2860881005119953E-002  0.48723234535176513        8.8723713182603804E-005

 INSTANT    0.449999900E+05   TIME STEP NUMBER         4499999
 ============================================================= 




   ** BOUNDARY MASS FLOW INFORMATION
      ------------------------------

---------------------------------------------------------------
Boundary type          Code    Nb faces           Mass flow
---------------------------------------------------------------
Inlet                     2           0         0.000000000E+00
Smooth wall               5       39366         0.000000000E+00
Rough wall                6           0         0.000000000E+00
Symmetry                  4           0         0.000000000E+00
Free outlet               3           0         0.000000000E+00
Free inlet               14           0         0.000000000E+00
Convective inlet         16           0         0.000000000E+00
Free surface             15           0         0.000000000E+00
Undefined                 1           0         0.000000000E+00
---------------------------------------------------------------

 cedric output : friction bot wall =    6.1979549675039283E-002 -0.48721245780710931       -5.4956169852128113E-004
 cedric output : friction top wall =    6.2863520452178287E-002  0.48721642071057591        8.9235326958245236E-005

 INSTANT    0.450000000E+05   TIME STEP NUMBER         4500000
 ============================================================= 




   ** BOUNDARY MASS FLOW INFORMATION
      ------------------------------

---------------------------------------------------------------
Boundary type          Code    Nb faces           Mass flow
---------------------------------------------------------------
Inlet                     2           0         0.000000000E+00
Smooth wall               5       39366         0.000000000E+00
Rough wall                6           0         0.000000000E+00
Symmetry                  4           0         0.000000000E+00
Free outlet               3           0         0.000000000E+00
Free inlet               14           0         0.000000000E+00
Convective inlet         16           0         0.000000000E+00
Free surface             15           0         0.000000000E+00
Undefined                 1           0         0.000000000E+00
---------------------------------------------------------------


   ** BOUNDARY CONDITIONS FOR SMOOTH WALLS
   ---------------------------------------
------------------------------------------------------------
                                         Minimum     Maximum
------------------------------------------------------------
   Rel velocity at the wall uiptn :  0.00000E+00 0.00000E+00
   Friction velocity        uet   :  0.00000E+00 0.10719E+00
   Friction velocity        uk    :  0.00000E+00 0.10719E+00
   Dimensionless distance   yplus :  0.00000E+00 0.94622E+00
   ------------------------------------------------------
   Nb of reversal of the velocity at the wall   :          0
   Nb of faces within the viscous sub-layer     :      39366
   Total number of wall faces                   :      39366
------------------------------------------------------------


 cedric output : friction bot wall =    6.1970561793138201E-002 -0.48719862406286474       -5.5069501983241861E-004
 cedric output : friction top wall =    6.2866200308609510E-002  0.48720252803267661        8.9766685975745439E-005
 cedric output : bulk fluid temperature =    45000.000000180582        4.5085904005718019E-002   3.1639945554779531E-010   1.1226331287396259E-008   1.8371676334649625E-008
 cedric output : bulk solid temperature =    45000.000000180582      -0.16923718000570376       -1.5586011893140850     


 Write final restart files
   checkpoint at iteration    4500000, Physical time    0.45000E+05


   ** Writing the main restart file
      -----------------------------

 Start writing
  Wrote field names and types to checkpoint: checkpoint/main
   End writing the options                              
  Wrote main variables to checkpoint: checkpoint/main
 End writing

   ** Writing the auxiliary restart file
      ----------------------------------

 Start writing
   End writing the dimensions and options               
   End writing the physical properties                  
   End writing the time step                            
  Wrote boundary condition coefficients to checkpoint: checkpoint/auxiliary
   End writing the source terms                         
 End writing

   ** INFORMATION ON CONVERGENCE
      --------------------------
----------------------------------------------------------------------------
   Variable     Rhs norm      N_iter  Norm. residual   Drift   Time residual
----------------------------------------------------------------------------
c  Velocity     0.78355E+01       6   0.48924E-05   0.19270E-02 0.50572E+00 
c  Velocity[X]                                      0.81467E-03 
c  Velocity[Y]                                      0.47685E-03 
c  Velocity[Z]                                      0.63545E-03 
c  Pressure     0.15175E-03       8   0.69648E-05   0.11147E+00 0.21135E+01 
c  diric        0.35176E+00       4   0.85884E-04   0.28276E-05 0.43042E+00 
c  neuma        0.38355E-01       8   0.46097E-04   0.31968E-05 0.25213E+01 
c  11           0.84877E+00       3   0.36092E-04   0.29055E-05 0.14417E+00 
c  12           0.52836E+01       3   0.58277E-05   0.29315E-05 0.14960E-01 
----------------------------------------------------------------------------
  
  

  ** Clippings for computed fields
     -----------------------------

   field     initial min     initial max  clips to min  clips to max
-  -----  --------------  --------------  ------------  ------------
a  diric
a  neuma
a  11   
a  12   


  ** Computed fields on cells
     ------------------------

   field                        minimum         maximum        set mean    spatial mean
-  --------------------  --------------  --------------  --------------  --------------
v  Velocity[X]                        0          1.3369         0.45406         0.72688
v  Velocity[Y]                 -0.24079          0.2238     -9.5146e-07     -1.7193e-08
v  Velocity[Z]                   -0.315          0.3162         -0.0013      -0.0011582
v  Velocity                         0          1.3385         0.45571         0.72856
v  Pressure                   -0.048465        0.041102      -0.0033382     -2.0246e-16
v  diric                              0        0.069847        0.020588         0.03279
v  neuma                      -0.067884         0.02382      -0.0054132     -3.8345e-19
v  11                          -0.34085        0.087912      -0.0088631      1.2679e-16
v  12                           -3.4703         0.60799        0.024981     -4.4173e-16
v  Laminar Viscosity          0.0001416       0.0001416       0.0001416       0.0001416
v  Turb Viscosity                     0       0.0023738      5.5286e-05      9.5721e-05
v  CFL                                0         0.36472        0.074281          0.1091
v  Fourier Number             0.0028901          0.5583        0.078676         0.02452
v  Total Pressure            1.0132e+05      1.0133e+05      1.0132e+05      1.0133e+05
v  11 Diff                    0.0001416       0.0001416       0.0001416       0.0001416
v  12 Diff                   1.2665e-05       0.0001416      8.6849e-05      0.00010644
v  11 Rho                             1               1               1               1
v  12 Rho                       0.44721               1         0.76526         0.84924
m  mu_t                               0      0.00017226      5.5943e-05
m  u_mean[X]                          0          1.1268         0.45359
m  u_mean[Y]                 -0.0014564       0.0014739      1.5748e-08
m  u_mean[Z]                 -0.0019784       0.0018303      4.0011e-05
m  u_mean                           0          1.1268         0.45359
m  rij[XX]                            0        0.029644       0.0063967
m  rij[YY]                            0       0.0029468      0.00087145
m  rij[ZZ]                            0       0.0044141       0.0016754
m  rij[XY]                   -0.0027005        0.002659      -1.701e-06
m  rij[YZ]                  -7.6256e-05       7.132e-05     -2.9744e-07
m  rij[XZ]                  -0.00026642      0.00027367      5.9566e-07
m  diric_mean                         0        0.050294        0.020551
m  diric_variance                     0      6.8106e-05      1.5036e-05
m  diric_flux[X]                      0        0.056701        0.018843
m  diric_flux[Y]            -0.00016335      0.00016818     -6.7619e-08
m  diric_flux[Z]            -7.4568e-05       6.735e-05      2.0594e-06
m  diric_flux                       0        0.056701        0.018843
m  neuma_mean                 -0.044442       0.0052836      -0.0054045
m  neuma_variance                     0      8.1567e-05       2.058e-05
m  neuma_flux[X]              -0.010079       0.0059883      -0.0015848
m  neuma_flux[Y]            -0.00013271      0.00012978     -1.7216e-08
m  neuma_flux[Z]            -3.5133e-05      4.3509e-05      2.4082e-07
m  neuma_flux                       0        0.010079         0.00275
m  11_mean                     -0.34044        0.068633      -0.0088032
m  11_variance               5.4316e-08      7.3418e-05      1.8234e-05
m  11_flux[X]                         0        0.077364        0.027218
m  11_flux[Y]                 -0.000184      0.00019126     -1.4532e-08
m  11_flux[Z]               -0.00011022       0.0001004      2.7883e-06
m  11_flux                          0        0.077364        0.027218
m  12_mean                      -3.4702         0.58964        0.025038
m  12_variance               3.6578e-09      7.8885e-05      2.0818e-05
m  12_flux[X]                         0         0.66443         0.26356
m  12_flux[Y]                -0.0007919      0.00087476     -6.6814e-09
m  12_flux[Z]                -0.0011253        0.001047      2.3632e-05
m  12_flux                          0         0.66443         0.26356
m  u_grad[XX]                -0.0054809       0.0054952     -2.2634e-09
m  u_grad[XY]                   -22.468          22.384       0.0008003
m  u_grad[XZ]                  -0.11952         0.12473      7.3233e-07
m  u_grad[YX]                -0.0010122       0.0010018     -5.0783e-10
m  u_grad[YY]                 -0.019953        0.019767     -6.4337e-08
m  u_grad[YZ]                 -0.018463        0.021296      1.5913e-07
m  u_grad[ZX]                -0.0016122        0.001531      9.9159e-10
m  u_grad[ZY]                  -0.12914         0.16496      0.00045993
m  u_grad[ZZ]                 -0.020073        0.018629     -9.6179e-10
m  u_diss[XX]                         0         0.55027         0.12872
m  u_diss[XY]                         0          80.892          9.2199
m  u_diss[XZ]                         0          9.4842          1.6661
m  u_diss[YX]                         0         0.12114        0.032576
m  u_diss[YY]                         0         0.67553         0.18668
m  u_diss[YZ]                         0         0.76052         0.18687
m  u_diss[ZX]                         0         0.19076        0.063788
m  u_diss[ZY]                         0          18.355          1.6585
m  u_diss[ZZ]                         0         0.81343         0.23455
m  mu_t_u_grad[XX]          -1.4892e-08      2.6738e-05      5.8678e-06
m  mu_t_u_grad[XY]           -7.271e-05      7.2798e-05      1.5802e-08
m  mu_t_u_grad[XZ]          -9.4137e-06      9.5309e-06      1.4461e-09
m  mu_t_u_grad[YX]          -5.2494e-06      5.1282e-06     -2.8312e-09
m  mu_t_u_grad[YY]          -2.5098e-05      5.3179e-07     -4.8186e-06
m  mu_t_u_grad[YZ]          -1.0521e-05      1.2269e-05      1.5476e-09
m  mu_t_u_grad[ZX]          -2.5832e-06      2.8022e-06      2.6512e-09
m  mu_t_u_grad[ZY]          -1.3351e-05       1.318e-05     -5.4367e-09
m  mu_t_u_grad[ZZ]          -8.0865e-06       5.278e-06      -6.049e-07
m  mu_t_u_diss                        0       0.0018502      0.00047929
m  diric_grad[X]            -0.00027276      0.00026354      1.8794e-10
m  diric_grad[Y]                  -1.02           1.016      2.4205e-05
m  diric_grad[Z]              -0.005485       0.0055653      2.7185e-08
m  diric_grad                       0            1.02         0.13413
m  diric_diss[XX]                     0       0.0018695      0.00045237
m  diric_diss[YY]                     0         0.18777        0.022843
m  diric_diss[ZZ]                     0        0.021664       0.0039122
m  diric_diss[XY]            -0.0084252       0.0084419     -8.5149e-07
m  diric_diss[YZ]            -0.0013967       0.0010785     -1.7389e-06
m  diric_diss[XZ]           -0.00013837      0.00013597      6.7967e-07
m  diric_mu_t_t_grad[X]     -1.6367e-09      2.6972e-06      6.4456e-07
m  diric_mu_t_t_grad[Y]     -5.2589e-06       5.282e-06      6.3022e-10
m  diric_mu_t_t_grad[Z]     -4.4464e-07      4.8464e-07      3.5174e-10
m  diric_mu_t_t_grad                0      5.5733e-06      1.5171e-06
m  diric_mu_t_t_diss                  0      3.5025e-06      8.4539e-07
m  neuma_grad[X]            -0.00034571      0.00032179      3.7898e-11
m  neuma_grad[Y]               -0.99894         0.99897     -0.00011008
m  neuma_grad[Z]             -0.0088592       0.0073939      5.0735e-08
m  neuma_grad                       0         0.99897         0.13327
m  neuma_diss[XX]                     0       0.0019306      0.00048558
m  neuma_diss[YY]                     0         0.13597        0.018069
m  neuma_diss[ZZ]                     0        0.023751       0.0050753
m  neuma_diss[XY]            -0.0087623       0.0087705      1.6486e-06
m  neuma_diss[YZ]            -0.0013217        0.001447     -5.7959e-06
m  neuma_diss[XZ]           -0.00013805      0.00015865      8.9237e-07
m  neuma_mu_t_t_grad[X]     -8.4441e-10      2.9125e-06      6.9381e-07
m  neuma_mu_t_t_grad[Y]     -5.2095e-06      5.2381e-06     -1.3938e-09
m  neuma_mu_t_t_grad[Z]     -4.5143e-07      5.6211e-07      3.0786e-10
m  neuma_mu_t_t_grad                0      5.5868e-06      1.5521e-06
m  neuma_mu_t_t_diss                  0       3.651e-06      8.7545e-07
m  11_grad[X]               -0.00031433      0.00027646     -6.4305e-10
m  11_grad[Y]                   -1.0084          1.0073     -0.00010179
m  11_grad[Z]                 -0.007556       0.0068177      6.3259e-08
m  11_grad                 0.00070986          1.0084         0.55898
m  11_diss[XX]               1.2752e-09       0.0018955      0.00045975
m  11_diss[YY]               4.5922e-08         0.12566        0.020924
m  11_diss[ZZ]               5.0047e-07        0.022666       0.0044749
m  11_diss[XY]               -0.0086677       0.0086791      1.5412e-06
m  11_diss[YZ]               -0.0011649       0.0010955     -4.2876e-06
m  11_diss[XZ]              -0.00014353      0.00015118      7.8125e-07
m  11_mu_t_t_grad[X]        -1.2236e-09      2.7046e-06      6.4357e-07
m  11_mu_t_t_grad[Y]        -5.1238e-06      5.1359e-06     -1.0716e-09
m  11_mu_t_t_grad[Z]        -4.4334e-07      5.1435e-07      3.6469e-10
m  11_mu_t_t_grad                   0      5.4467e-06      1.4824e-06
m  11_mu_t_t_diss                     0      3.5651e-06      8.5298e-07
m  12_grad[X]               -0.00035165      0.00031456     -5.8455e-10
m  12_grad[Y]                   -11.206          11.204      -8.493e-05
m  12_grad[Z]                  -0.00861       0.0072123      7.2425e-08
m  12_grad                 0.00070837          11.206          4.8857
m  12_diss[XX]               1.1806e-10       0.0019089      0.00046807
m  12_diss[YY]               1.2089e-08         0.58801        0.033653
m  12_diss[ZZ]               6.5772e-08        0.023514       0.0050566
m  12_diss[XY]               -0.0089152       0.0089017      1.5763e-06
m  12_diss[YZ]               -0.0029383       0.0026456     -6.7854e-06
m  12_diss[XZ]              -0.00014498      0.00016042       8.679e-07
m  12_mu_t_t_grad[X]         -9.328e-10      2.7041e-06      6.4301e-07
m  12_mu_t_t_grad[Y]         -5.046e-06      5.0477e-06     -1.1901e-09
m  12_mu_t_t_grad[Z]         -4.442e-07      5.2079e-07      3.5399e-10
m  12_mu_t_t_grad                   0      5.3844e-06      1.4665e-06
m  12_mu_t_t_diss                     0      3.6084e-06      8.5992e-07

  ** Computed fields on boundary_faces
     ---------------------------------

   field         minimum         maximum        set mean    spatial mean
-  -----  --------------  --------------  --------------  --------------
v  Yplus               0         0.94622         0.16415         0.16415


  ** Computed values on cells
     ------------------------

   criterion               minimum         maximum        set mean    spatial mean
   ---------------  --------------  --------------  --------------  --------------
   Courant/Fourier       0.0036444         0.71447         0.15296         0.13362


  ** Temporal moment accumulated weights
     -----------------------------------

   id   n it.             value
   ---- -------- --------------
   0    999991           9999.9


===============================================================



                 FINAL STAGE OF THE CALCULATION              
                 ==============================              


 =========================================================== 





 =========================================================== 




                      END OF CALCULATION                     
                      ==================                     


===============================================================

 Destroying structures and ending computation
